Mass Spectrum: "L-Valin N,O-TMS2"
Formula: "C11 H27 N O2 Si2"
CAS: 72 - 18 - 4
Molecular weight: 261
m/z	intensity
60.05	3294
61.05	2820
62	324
63	69
64	93
66.25	1095
67.3	213
68.2	372
69.25	1766
70.15	3236
71.25	2125
72.25	28028
73.2	193536
74.15	24823
75.1	21760
76.05	2163
76.85	1050
77.8	126
79.8	486
81.1	837
82.15	1686
83.05	1223
84.15	1497
85.05	1276
86.15	3445
87.05	947
88.1	449
89.1	427
90.1	352
93.1	64
96.1	377
97.2	766
98.25	1984
99.25	4952
100.15	26646
101.15	3811
101.95	2771
102.9	4384
103.85	763
104.9	408
105.9	70
106.9	49
109.9	255
111.2	349
112.15	1797
113.25	1412
114.15	5861
115.15	2524
116.05	1078
117.05	3462
117.95	1268
119.15	1136
120.1	226
122.1	85
123.1	199
124.1	225
125.1	261
127.25	1155
128.2	8122
129.15	4494
130.05	4313
131.05	8648
132.05	8803
133	9565
133.95	2313
134.95	688
137	289
139	222
140	50
141.2	207
142.25	946
143.25	48343
144.15	331388
145.15	47267
146.15	16660
147.1	46734
148.05	8344
149.05	3831
150.05	660
151.1	74
152.1	27
155.25	899
156.2	5255
157.15	1838
158.15	1355
159.1	2937
160.05	1569
161.1	208
162.2	406
163.2	2124
164.2	93
165.2	147
168.2	42
169.2	74
171.2	255
172.2	615
173.2	663
174.25	1111
175.2	53
176.2	115
177.2	35
180.2	67
185.2	39
188.2	90
189.2	216
190.2	1
193.2	75
194.2	201
196.2	38
201.2	146
202.25	732
203.15	2915
204.2	297
205.2	15
207.2	143
209.2	75
210.2	95
215.2	12
217.25	7142
218.2	56668
219.15	14145
220.15	5444
221.15	552
223.2	98
225.2	3
226.2	39
227.2	7
228.2	379
229.2	66
230.2	158
231.2	39
234.2	28
236.2	151
238.2	25
243.2	8
244.2	140
245.35	803
246.35	2863
247.25	1024
248.3	268
249.3	86
253.3	26
257.3	17
259.3	93
260.3	134
263.3	49
264.3	154
265.3	32
266.3	9
267.3	14
269.3	16
270.3	41
273.3	24
274.3	68
276.3	5
280.3	6
283.3	153
284.3	35
286.3	23
287.3	76
289.3	37
292.3	56
294.3	86
299.3	131
302.3	84
303.3	9
305.3	87
308.3	44
309.3	108
310.3	18
313.3	28
314.3	62
315.3	9
316.3	48
317.3	17
318.3	7
321.3	26
322.3	25
324.3	32
326.3	156
330.3	33
332.3	76
333.3	36
337.3	72
343.3	34
344.3	60
346.3	11
349.3	24
351.3	122
353.3	86
357.3	8
358.3	68
359.3	34
361.3	201
363.3	18
366.3	34
370.3	107
372.3	125
374.3	32
376.3	76
380.3	62
382.3	83
383.3	157
384.3	6
387.3	23
388.3	15
391.3	68
392.3	19
395.3	55
396.3	17
398.3	16
399.3	33
406.3	117
410.3	71
413.3	81
417.3	23
421.3	60
422.3	9
425.3	65
427.3	20
428.3	71
429.3	33
431.3	39
434.3	35
436.3	34
439.3	1
442.3	18
446.3	50
449.3	58
451.3	8
452.3	45
454.3	11
456.3	102
457.3	9
460.3	51
462.3	13
463.3	121
466.3	82
467.3	65
468.3	19
470.3	21
471.3	33
479.3	16
480.3	53
482.3	171
485.3	31
487.3	50
489.3	100
490.3	47
491.3	35
493.3	94
497.3	28
498.3	90
503.3	15
506.3	21
508.3	155
515.3	43
516.3	137
517.3	28
520.3	46
521.3	56
522.3	60
527.3	4
529.3	20
530.3	13
532.3	19
537.3	4
538.3	15
539.3	80
543.3	56
546.3	120
547.3	49
550.3	63
60.15	840
61.1	1583
62.1	424
63.1	220
66.1	349
66.85	979
68.1	112
69.25	715
70.25	1183
71.1	144
72.15	5200
73.15	37896
74.05	7654
75.1	10094
76.05	1537
77.15	445
77.75	400
78.75	172
79.75	636
80.7	2234
81.7	105
83.7	215
84.7	431
86.15	594
87.15	998
88.15	1833
89.1	477
90.1	38
91.1	367
93.1	38
95.1	210
96.1	45
98.1	208
99.1	469
100.2	2318
101	645
102.05	1770
103	5488
104.4	1345
105	303
108	48
109.4	66
113.4	95
115.15	5591
116.05	42461
117.05	6021
118.05	2037
119.1	270
122.1	96
124.1	134
126.1	143
127.1	110
128.1	16
129.15	822
130.05	2999
131.15	5470
132.1	28981
133.05	5092
134.05	1164
135.1	385
138.1	52
139.1	5
141.1	54
143.15	989
144.05	4400
145.05	923
146.05	2768
147.05	5028
147.95	898
149.2	689
150	40
153.2	67
156	119
158.1	13
159.15	2261
160.1	425
161.1	83
162.1	114
164.1	55
168.1	15
169.1	47
172.1	57
173.1	130
176.1	25
178.1	29
180.1	60
181.1	56
187.1	223
188.1	493
189.1	309
190.1	303
192.1	29
195.1	80
197.1	30
199.1	42
200.1	60
202.1	114
203.1	10
204.1	53
206.1	426
207.1	337
209.1	186
211.1	96
216.1	23
217.9	87
218.9	1311
219.8	33
220.9	168
221.8	56
222.9	67
223.9	13
224.9	90
225.8	88
227.9	53
228.9	1
230.8	157
234.05	1528
235	34
236	207
237	21
243	20
244	18
245	20
247	4
250	65
251	71
256	67
263	162
265	2
266	9
268	141
269	118
271	87
272	48
274	39
276	142
279	73
281	7
282	83
283	1
285	27
287	80
290	29
292	68
293	7
299	110
302	21
304	120
305	102
307	188
308	30
309	10
310	4
311	78
317	24
319	26
321	20
323	35
324	143
326	125
331	13
334	10
336	30
337	168
344	1
345	160
347	49
349	20
354	72
362	78
364	104
365	47
366	36
367	40
369	125
371	103
375	65
379	10
381	1
383	54
385	156
388	7
389	121
390	86
391	31
392	134
395	151
396	55
398	28
402	4
405	133
407	8
408	6
409	51
411	44
416	60
417	32
420	128
424	86
426	75
427	94
429	56
430	76
432	29
434	45
437	53
440	135
444	154
449	83
457	55
458	16
463	27
468	54
469	17
471	52
472	63
473	12
475	19
477	60
482	11
484	42
486	74
488	40
489	63
490	93
492	20
497	61
500	69
502	35
505	42
507	12
510	138
513	29
514	16
515	14
516	53
520	2
523	98
526	2
527	84
529	3
531	164
533	38
538	78
541	27
542	28
543	12
545	135
548	18
550	105
60	5591
61.05	5129
61.95	739
64	179
65	6
66.25	1246
67.15	1132
68.25	1150
69.25	3159
70.15	3979
71.25	2732
72.25	39690
73.2	319009
74.15	42497
75.05	36789
76.05	4160
77.15	816
78.1	230
79.35	551
80.3	1701
81.25	1057
82.25	873
83.25	642
84.15	3680
85.25	2237
86.2	9162
87.15	2989
88.35	1266
89.25	921
90.3	357
92.3	3
93.3	97
94.3	471
95.1	186
96.15	1672
97.15	903
98.15	2298
99.15	7708
100.15	36646
101.15	16890
102.15	89941
103.05	19657
104.05	3727
105.05	1140
106.1	92
107.1	93
108.1	107
110.1	466
111.1	491
112.15	1502
113.15	1093
114.15	4221
115.15	16293
116.1	28646
117.05	13484
118.05	2747
119	2415
120	558
121	417
122	42
124	216
125	230
126.05	1032
127.15	2291
128.1	11626
129.15	7402
130.1	18377
131.05	11364
132.15	13206
133.05	22786
134.05	4488
135.05	1994
136.1	109
138.1	195
140.1	142
141.25	1633
142.25	9471
143.15	3082
144.15	1667
145.1	343
146.15	9624
147.15	73226
148.05	15449
149.05	4884
150.05	704
151.1	183
153.1	83
154.1	495
155.25	687
156.25	1546
157.25	104702
158.2	770283
159.15	142623
160.15	33076
161.15	4053
163.15	1005
164.2	143
167.2	162
168.2	80
169.15	1058
170.1	6061
171.05	2489
172.3	1934
173.25	777
174.25	3389
175.35	1788
176.25	3083
177.25	1098
178.3	520
179.3	394
182.3	100
183.3	54
184.3	125
185.3	144
186.3	596
187.3	758
188.3	369
189.3	450
190.3	363
191.3	37
194.3	123
196.3	31
200.3	150
202.15	741
203.1	2148
204.1	1050
205.1	449
206.1	292
208.1	34
209.1	25
214.1	243
215.1	146
216.15	1055
217.15	1700
218.15	21036
219.05	6125
220.2	2552
221.15	653
222.2	37
223.2	20
224.2	173
225.2	164
227.2	17
230.25	402
231.25	6883
232.2	33091
233.15	9783
234.15	3300
235.2	378
237.2	81
239.2	22
242.2	406
244.2	149
245.2	157
246.2	194
248.2	20
249.2	116
251.2	66
253.2	53
255.2	47
259.15	635
260.1	8072
261.05	2819
262.4	923
263.4	92
274.4	209
275.4	173
276.4	35
283.4	17
284.4	14
285.4	3
287.4	63
288.4	33
289.4	62
296.4	2
298.4	37
302.4	17
303.4	35
306.4	103
307.4	29
310.4	37
314.4	19
319.4	69
322.4	113
325.4	280
328.4	133
331.4	61
336.4	43
337.4	83
338.4	37
340.4	164
347.4	6
350.4	1
351.4	25
362.4	41
366.4	71
369.4	1
370.4	66
374.4	41
375.4	15
379.4	50
385.4	121
387.4	49
394.4	135
395.4	19
405.4	53
411.4	47
415.4	63
418.4	57
419.4	8
421.4	4
424.4	126
427.4	55
434.4	24
437.4	88
439.4	70
440.4	36
443.4	21
446.4	83
448.4	122
450.4	18
454.4	90
456.4	7
461.4	174
466.4	92
469.4	26
470.4	77
472.4	22
476.4	29
480.4	45
484.4	141
485.4	134
487.4	107
500.4	47
503.4	58
511.4	137
517.4	10
521.4	156
522.4	10
525.4	63
527.4	39
529.4	67
534.4	60
535.4	32
539.4	52
542.4	121
543.4	34
545.4	79
548.4	65
550.4	233
60	6396
61.05	4283
61.95	919
64	180
65	378
66.25	1663
67.15	1094
68.25	4002
69.2	22231
70.15	5821
71.25	2714
72.25	55445
73.2	437788
74.15	52383
75.1	44603
76.05	4079
77.05	1251
78.1	277
79.55	434
80.6	3084
82.25	1295
83.25	1356
84.2	4315
85.25	6229
86.15	12203
87.15	2795
88.2	1621
89.25	1276
90.2	4414
91.15	721
92.2	245
94.2	493
95.2	688
96.15	2020
97.25	2920
98.15	4098
99.25	11883
100.15	61355
101.15	12174
102.2	23781
103.15	10324
104.15	1738
105.15	1342
107.2	499
108.2	104
109.2	92
110.2	465
111.25	695
112.25	1776
113.25	2602
114.15	11687
115.15	6766
116.2	7737
117.15	7799
118.1	1664
119.1	4211
120.05	828
121.1	105
122.1	27
123.1	1
124.1	387
125.1	344
126.15	1404
127.15	3298
128.15	17288
129.15	11412
130.1	11726
131.05	12674
132.1	20932
133.05	22117
134.05	4931
135.05	1921
136.1	35
140.1	34
141.35	2557
142.3	11970
143.25	6420
144.25	3849
145.15	1564
146.15	13188
147.1	93793
148.05	20744
149.05	7772
150.05	1376
151.1	236
155.25	764
156.25	1998
157.25	89723
158.2	756574
159.15	152341
160.15	34086
161.15	4570
162.15	945
163.1	5231
164.05	677
165.05	1133
166	49
168	125
169.15	908
170.15	11184
171.05	2387
171.8	1873
172.75	623
174.15	2737
175.15	1340
176.05	881
177.1	447
178.1	106
181.1	23
182.1	52
184.1	202
186.1	382
187.1	146
188.1	299
189.1	595
190.1	314
191.1	24
192.1	346
193.1	90
195.1	78
198.1	50
199.1	16
200.1	73
202.25	1658
203.15	4693
204.15	1515
205.2	284
206.2	40
209.2	76
213.2	132
214.2	235
215.1	318
216.15	258
217.15	11649
218.15	99365
219.05	31664
220.05	10052
221.05	1563
223.1	71
227.1	20
229.1	228
230.2	161
231.25	5122
232.25	39027
233.15	13114
234.15	5419
235.15	918
236.2	48
240.2	20
242.2	81
245.2	147
246.2	781
247.2	247
254.2	103
256.2	52
257.2	92
259.25	1739
260.15	7255
261.15	1610
262.15	582
266.2	12
270.2	86
271.2	47
272.2	57
274.2	174
275.2	29
276.2	95
277.2	37
281.2	21
282.2	2
285.2	188
287.2	19
289.2	51
291.2	151
296.2	147
298.2	215
300.2	28
302.2	183
305.2	47
310.2	29
311.2	84
316.2	6
326.2	124
329.2	71
331.2	11
332.2	62
334.2	167
336.2	18
339.2	42
341.2	12
343.2	23
346.2	100
351.2	129
353.2	15
354.2	64
356.2	139
357.2	130
359.2	82
364.2	71
366.2	3
367.2	66
368.2	25
369.2	107
371.2	14
373.2	28
374.2	70
375.2	33
377.2	44
380.2	87
382.2	72
384.2	66
389.2	46
391.2	213
393.2	84
394.2	12
395.2	13
396.2	50
397.2	136
403.2	13
405.2	204
411.2	119
415.2	58
416.2	10
418.2	79
422.2	177
423.2	84
425.2	7
428.2	123
430.2	17
445.2	51
447.2	9
449.2	33
453.2	15
457.2	34
458.2	28
459.2	8
460.2	96
461.2	10
467.2	22
471.2	16
473.2	55
475.2	77
477.2	17
479.2	150
480.2	66
487.2	16
489.2	53
497.2	20
500.2	61
504.2	64
510.2	83
515.2	173
517.2	25
518.2	87
519.2	72
520.2	82
526.2	18
529.2	2
531.2	9
535.2	81
539.2	29
540.2	59
545.2	14
549.2	17
60.15	1850
61.05	2460
62.1	385
63.1	290
65.25	1759
66.25	12415
67.15	2676
68.25	4343
69.25	4047
70.2	9647
71.25	4227
72.25	44321
73.2	248311
74.15	27800
75.1	22718
76.05	2912
77.15	913
78.75	699
79.65	4324
80.65	1586
81.65	547
83.15	1800
84.15	1727
85.15	2957
86.1	3106
87.05	2100
88.05	900
89.1	129
90.1	148
91.1	158
93.1	219
94.1	648
95.3	412
96.55	1130
97.55	1088
98.35	2487
99.35	4648
100.25	7821
101.25	2893
102.1	1867
103.1	2048
104.05	837
105.55	1212
106.55	705
107.5	647
107.6	417
109.5	78
110	658
111	255
111.75	878
112.75	3328
113.65	2460
114.65	4930
115.65	2284
117.1	5622
118.05	693
119.15	1178
120	72
121.2	242
122	524
123	484
124.1	998
125.35	1437
126.25	1900
127.35	2750
128.25	1424
129.15	1421
130.15	2553
131.1	6639
132.05	2406
133.1	8078
134.05	1619
135.1	235
136.1	92
137.1	157
138.35	956
139.25	657
140.25	3667
141.25	81701
142.15	531326
143.15	83200
144.15	19139
145.15	1574
146.15	5766
147.15	37945
148.05	7576
149.05	3553
150.1	438
153.1	142
154.1	510
155.1	91
156.1	132
157.1	86
158.1	1708
159.1	277
160.1	300
162.1	49
163.1	125
165.1	49
166.1	356
168.1	123
169.25	398
170.2	4657
171.15	557
172.15	938
173.1	173
174.15	550
175.15	2869
176.1	286
183.1	50
184.1	177
186.1	440
187.2	115
188.1	251
189.1	184
190.1	255
192.1	34
193.2	51
196.1	61
200.2	59
201.1	29
202.1	12
203.2	94
204.1	118
205.1	59
208.2	13
214.1	305
215.25	3234
216.2	25261
217.15	5658
218.15	3221
219.15	734
220.2	487
221.2	2
222.2	90
225.2	186
228.2	116
229.2	6
230	1051
231	328
233.3	37
234	66
237	129
239.3	66
240.3	276
241	7
242	115
243.15	897
244.15	2430
245.05	608
246.1	301
248.1	8
249.1	117
253.1	18
257.2	138
258.2	246
259.1	344
260.1	256
263.1	3
266.2	35
272.2	52
275.2	59
277.2	41
279.1	72
283.1	57
285.1	127
292.2	66
296.2	104
299.1	9
301.2	33
305.1	142
308.1	143
310.2	5
313.2	88
314.2	1
315.2	12
320.2	2
321.1	125
326.1	12
328.1	64
329.2	16
330.2	41
332.2	53
333.1	11
336.1	65
341.2	154
343.1	120
345.2	30
346.2	6
347.1	23
349.1	25
351.1	74
356.1	109
358.1	50
359.2	16
361.1	79
363.1	78
364.1	61
366.1	31
367.2	72
369.2	4
370.1	38
371.2	62
372.1	55
375.2	66
378.1	1
382.2	18
384.1	72
388.1	3
390.2	53
391.2	81
396.1	8
399.2	39
400.1	34
403.2	143
405.2	61
407.2	57
408.2	36
413.1	60
418.2	110
423.2	38
425.2	76
428.2	54
429.2	1
432.2	2
441.2	38
443.2	14
445.2	29
448.2	11
451.2	43
456.1	14
457.2	36
462.1	22
463.1	26
465.1	7
466.2	120
467.1	12
468.1	45
470.1	50
473.2	41
476.2	65
481.2	8
482.1	64
484.2	39
485.2	66
487.1	139
489.1	108
490.2	74
492.1	44
496.2	6
500.2	26
503.1	39
504.2	25
505.1	47
507.2	112
511.2	64
513.2	7
515.1	53
522.2	11
523.1	16
525.1	11
527.1	19
528.1	21
529.2	17
531.2	19
536.2	88
538.1	3
542.1	123
543.2	38
545.2	100
546.2	19
548.2	81
60	2761
61.05	1784
62	202
63	87
64	71
66	525
67	264
68	14
69.2	516
70.25	1643
71.25	2769
72.25	32708
73.15	234109
74.15	22301
75.1	15374
76.05	1647
77.1	182
79.1	8
80.1	97
82.1	202
83.1	334
84.15	738
85.15	7009
86.15	81544
87.05	10750
88.05	2872
89.1	306
90.1	67
91.1	33
93.1	26
94.1	72
95.1	791
96.1	128
97.1	298
98.25	594
99.25	8212
100.15	54767
101.15	9779
102.15	4340
103.1	2673
103.7	1117
104.65	1185
105.7	352
110.7	19
113.15	1658
114.15	2571
115.05	3798
116.15	7751
117.1	12217
118.05	3061
119	3567
120	255
121	152
122	290
123	111
125	142
128.1	235
129.15	2746
130.15	15611
131.05	16448
132.15	10640
133.1	42699
134.05	7431
135.05	3243
136.05	820
138.1	92
141.1	231
143.15	1240
144.05	3978
145.1	271
146.15	12015
147.15	106139
148.05	22587
149.05	6103
150.05	1084
152.1	159
156.1	239
157.25	1455
158.2	7612
159.1	1769
160.1	4013
161.05	812
162.1	395
164.1	15
166.1	48
171.25	744
172.25	3248
173.25	45253
174.2	391013
175.15	78375
176.15	27182
177.15	5783
178.15	697
179.2	167
182.2	73
184.2	44
187.25	951
188.2	3376
189.15	1063
190.55	794
191.5	66
192.5	107
193.5	66
196.5	21
198.5	17
199.5	34
200.5	188
202.1	2587
203.05	649
204.15	1054
205.05	731
206.1	239
207.1	14
210.1	19
212.1	171
214.1	72
216.1	8
218.1	209
222.1	71
225.1	52
230.1	103
231.1	237
233.1	25
234.1	140
235.1	59
237.1	82
238.1	13
239.1	28
241.1	142
245.25	1428
246.25	3991
247.25	11714
248.2	73505
249.15	20749
250.15	9624
251.15	983
252.2	328
253.2	106
255.2	270
256.2	11
257.2	100
258.2	85
259.2	45
260.2	225
263.2	143
264.2	97
266.2	125
272.2	79
273.2	223
275.15	2028
276.15	16754
277.05	5970
278.05	2105
279.05	619
281.1	47
282.1	10
284.1	132
286.1	10
289.1	174
291.1	174
295.1	54
297.1	111
298.1	29
299.1	8
300.1	35
302.1	39
303.1	15
305.1	151
308.1	119
310.1	19
312.1	27
319.1	95
322.1	73
325.1	36
331.1	43
333.1	97
337.1	39
341.1	55
346.1	25
348.1	122
349.1	5
350.1	21
352.1	19
354.1	75
356.1	56
366.1	50
369.1	82
370.1	102
371.1	96
373.1	44
376.1	10
377.1	77
379.1	21
380.1	16
382.1	6
386.1	2
390.1	26
391.1	99
393.1	34
397.1	127
399.1	19
402.1	3
405.1	41
406.1	64
407.1	185
409.1	11
410.1	4
411.1	72
413.1	182
416.1	81
417.1	28
419.1	47
420.1	43
423.1	110
424.1	33
426.1	137
431.1	84
433.1	138
434.1	29
436.1	118
438.1	125
440.1	29
442.1	207
444.1	47
448.1	60
451.1	20
452.1	21
454.1	160
456.1	108
457.1	86
458.1	28
469.1	39
471.1	13
473.1	88
476.1	29
477.1	21
478.1	49
479.1	65
480.1	92
484.1	145
488.1	41
492.1	65
496.1	57
497.1	42
500.1	5
503.1	94
507.1	170
511.1	35
512.1	44
513.1	119
515.1	1
516.1	16
518.1	30
520.1	105
522.1	63
524.1	3
525.1	38
528.1	40
530.1	89
532.1	84
536.1	42
545.1	76
546.1	2
550.1	187
60.05	2728
61.15	3030
62.1	292
63.1	92
64.1	39
65.1	139
66.2	1159
67.2	142
68.2	251
69.25	701
70.15	4201
71.25	1857
72.25	45106
73.2	324704
74.15	34797
75.1	34021
76.05	3477
77.05	1076
78.1	114
80.1	114
81	331
82.1	289
83.1	251
84.2	1337
85.25	1286
86.15	4398
87.25	2786
88.15	5294
89.15	3356
90.2	240
91.2	663
92.2	124
96.2	130
97.1	273
98.15	972
99.15	7611
100.15	82033
101.05	17191
102.05	7554
103	11312
103.95	1823
105.05	1457
105.95	584
107	104
109	69
110	66
111	107
112.15	602
113.15	2846
114.15	15566
115.15	11707
116.1	31600
117.05	16429
118.05	4501
119.05	3706
119.95	900
121	243
122	119
123	63
124	125
126	95
127	133
128.05	1099
129.15	2224
130.15	8553
131.15	14659
132.15	17180
133.05	29013
134.05	6986
135.05	2326
135.95	575
137.1	157
138	2
140	56
141.1	350
142.1	459
143.15	1418
144.15	2862
145.15	1256
146.15	10823
147.1	76882
148.05	16779
149.05	6449
150.05	922
151.1	308
152.1	61
154.1	73
155.1	38
156.1	47
157.35	942
158.2	3535
159.15	2804
160.15	1366
161.1	472
162.15	2067
163.1	6460
164.05	1795
165.2	1127
167.2	253
169.2	13
171.1	321
172.15	4575
173.15	2484
174.1	7112
175.05	1969
176.05	582
177.1	233
178.1	22
181.1	16
182.1	9
186.2	263
187.25	5173
188.2	43849
189.15	12854
190.15	6661
191.15	2296
192.15	663
193.2	165
194.2	25
196.2	21
197.2	55
198.2	33
199.2	41
200.2	150
201.2	53
202.25	413
203.25	36145
204.2	256926
205.15	51929
206.15	19645
207.15	3865
208.15	345
209.2	37
212.2	29
215.25	1203
216.25	7477
217.25	21918
218.15	147015
219.05	36699
220.05	12278
221.05	4197
222.15	378
224.1	44
226.2	39
229.2	25
231.25	716
232	437
233	739
239	95
240.1	8
245.1	47
246	24
247	181
256.1	102
260	118
261.1	110
262	565
263.1	316
264.1	29
265.1	135
266	189
268	76
270	41
271.1	87
276.1	143
277.25	2627
278.15	19179
279.15	5825
280.15	2286
281.15	512
282.2	52
283.2	36
284.2	13
286.2	64
288.2	9
290.2	191
291.2	240
295.2	94
298.2	39
300.2	77
302.2	11
303.2	4
304.2	57
305.25	685
306.2	8757
307.15	2446
308.2	1569
309.2	95
310.2	105
315.2	58
316.2	130
318.2	62
319.2	28
320.2	44
321.2	7
323.2	29
324.2	58
328.2	48
331.2	3
332.2	140
335.2	50
337.2	74
339.2	10
340.2	32
342.2	65
345.2	19
348.2	22
350.2	54
354.2	27
355.2	77
356.2	31
357.2	51
359.2	75
360.2	17
363.2	27
364.2	5
366.2	106
373.2	14
376.2	69
378.2	44
381.2	10
383.2	1
385.2	83
390.2	51
392.2	72
393.2	69
396.2	60
398.2	9
401.2	26
404.2	62
406.2	58
409.2	2
410.2	18
415.2	41
421.2	44
423.2	32
424.2	36
426.2	25
428.2	3
431.2	70
433.2	124
435.2	2
437.2	18
438.2	19
442.2	68
443.2	19
444.2	4
446.2	62
448.2	19
453.2	66
454.2	49
456.2	26
457.2	9
458.2	11
460.2	24
463.2	81
466.2	88
469.2	78
472.2	19
473.2	8
474.2	4
477.2	45
483.2	21
484.2	85
487.2	2
489.2	45
491.2	3
493.2	16
494.2	24
495.2	12
499.2	43
500.2	52
501.2	30
504.2	2
506.2	74
507.2	4
508.2	9
511.2	111
514.2	72
516.2	84
518.2	32
519.2	66
520.2	41
523.2	15
527.2	8
528.2	132
531.2	37
535.2	13
538.2	11
539.2	60
543.2	63
545.2	38
548.2	82
60.15	4879
61.15	5319
62.2	281
63.2	33
65.1	82
66.1	1397
67.1	308
68.2	408
69.25	2220
70.25	2736
71.25	1623
72.25	79672
73.2	574663
74.15	64309
75.15	57989
76.05	7401
77.25	946
78.3	89
79.3	4
80.3	226
81.3	268
82.3	407
83.25	872
84.15	5888
85.25	3724
86.15	14716
87.15	9373
88.15	2018
89.15	920
90.2	85
91.2	230
92.2	109
93.2	36
94.2	246
95.2	164
95.95	893
97.15	1309
98.1	3791
99.15	7601
100.15	73577
101.1	120918
102.05	23039
103.05	9599
104.05	1222
105.05	1223
107.1	74
110.1	259
111.1	530
112.15	2801
113.15	2876
114.15	19735
115.05	11952
116.15	26495
117.15	229186
118.05	40149
119.05	12191
120.05	1699
121.1	325
122.1	14
123.1	33
124.1	66
125.1	8
126	254
127.05	5354
128.05	66639
129	74713
129.95	36809
131.1	39416
132.1	33583
133.05	36935
134.05	7286
135.05	3550
136.05	669
137.1	108
138.1	222
139.1	6
140.1	609
142.25	2374
143.15	789
144.15	4591
145.15	1798
146.15	14083
147.15	101612
148.05	20990
149.05	13060
150.05	1753
151.05	650
152.1	42
153.1	12
154.1	53
155.35	736
156.25	2812
157.35	2168
158.3	7526
159.25	10833
160.25	8325
161.25	3165
162.25	1060
163.2	4424
164.2	411
166.2	190
169.2	27
170.2	161
171.15	614
172.15	5719
173.25	1639
174.2	8060
175.15	2416
176.15	3134
177.05	3880
178.05	955
179.1	90
180.1	81
183.1	28
184.1	42
185.35	662
186.25	4502
187.2	781
188.15	3018
189.25	1559
190.25	2437
191.15	4593
192.15	876
193.2	149
199.2	126
200	233
201.05	1018
202.05	26096
203	29369
203.95	10382
204.95	4505
205.95	885
207.1	794
211.1	45
213.1	42
214.1	923
215.35	544
216.35	2069
217.35	42323
218.3	227135
219.25	196683
220.25	45147
221.25	18213
222.25	3166
223.25	514
224.3	225
228.3	65
229.15	1073
230.05	7451
231.05	3330
232.1	1813
233.1	251
234.1	125
235.1	92
236.1	17
237.1	84
239.1	64
240.1	39
244.1	256
245.1	73
246.1	283
247.2	484
248.25	1864
249.2	547
250.2	400
251.2	22
252.2	179
254.2	49
256.2	29
258.2	5
259.2	109
260.2	117
262.2	181
263.2	165
270.2	97
271.2	67
273.2	84
274.2	196
275.2	122
276.2	2319
277.2	178
278.2	392
283.2	114
284.2	147
285.2	145
287.2	22
290.35	16521
291.3	71230
292.25	48460
293.25	17242
294.25	5411
295.25	1134
296.3	119
297.3	208
298.3	69
299.3	108
302.3	53
303.3	51
304.3	275
305.3	190
306.3	111
308.3	55
311.3	30
313.3	25
315.3	49
316.3	33
319.15	1127
320.1	10042
321.05	3616
322.05	1797
324.1	152
326.1	50
329.1	3
333.1	116
335.1	373
336.1	18
337.1	111
338.1	44
342.1	94
346.1	91
350.1	50
352.1	41
354.1	154
358.1	167
361.1	39
362.1	6
368.1	119
370.1	82
371.1	75
373.1	46
377.1	175
379.1	4
382.1	51
383.1	157
389.1	18
391.1	13
395.1	152
398.1	63
400.1	37
412.1	53
416.1	30
418.1	75
420.1	26
422.1	177
425.1	19
427.1	160
431.1	21
432.1	167
433.1	59
435.1	118
436.1	27
438.1	90
440.1	72
450.1	29
451.1	4
453.1	110
456.1	110
457.1	13
458.1	33
462.1	8
464.1	36
467.1	31
472.1	36
473.1	15
476.1	33
477.1	56
478.1	57
479.1	4
481.1	31
485.1	50
486.1	36
487.1	9
492.1	134
494.1	24
497.1	39
498.1	58
499.1	4
500.1	63
504.1	75
506.1	9
508.1	13
511.1	12
514.1	63
516.1	49
519.1	108
521.1	21
522.1	4
526.1	16
529.1	28
530.1	3
531.1	118
532.1	3
534.1	45
535.1	29
538.1	28
540.1	131
543.1	24
545.1	48
60.05	2691
61.1	3562
62.1	222
66.2	1521
67.2	113
68.2	461
69.25	2267
70.15	11294
71.25	1652
72.25	50827
73.15	344605
74.15	38375
75.15	41791
76.05	5012
77.1	929
78.1	86
79.1	35
80.1	15
81.1	191
82.1	449
83.05	946
84.05	1025
85.15	1670
86.05	2735
87.05	1567
88.4	1596
89.4	676
91.4	354
94.4	192
95.4	67
97.1	171
98.15	3043
99.15	11319
100.15	103803
101.05	15457
102.05	5089
102.95	5867
103.85	890
104.9	562
105.9	130
106.9	67
107.9	21
109.9	346
110.9	99
111.9	266
113.15	791
114.15	4875
115.1	8155
116.15	5796
117.1	33640
118.05	3779
118.85	5427
119.75	1358
120.8	204
123.8	184
124.8	126
125.8	281
127.15	876
128.1	4666
129.15	3260
130.1	12226
131.1	12590
132.15	9223
133.05	26939
134.05	5257
135.1	3667
136.1	351
137.1	97
140.1	222
141.15	905
142.1	7520
143.05	3430
144.05	2749
145.1	819
146.15	10279
147.15	76100
148.05	17743
149.05	11284
150.05	1485
151.1	591
152.1	299
154.1	356
156.1	369
157.2	494
158.15	1464
159.15	1012
160.2	2678
161.15	1070
162.25	2186
163.2	11783
164.15	2463
165.15	883
166.2	372
167.2	147
169.2	261
170.25	1106
171.25	995
172.15	6527
173.25	2034
174.15	7889
175.15	2036
176.15	1231
177.1	1882
178.1	217
179.1	243
181.1	84
183.1	74
184.2	1025
185.2	310
186.25	621
187.25	3698
188.2	29803
189.15	7472
190.15	3413
191.15	1303
192.2	420
193.2	23
194.2	50
200.15	846
201.15	1717
202.15	21710
203.05	5509
204.2	7496
205.15	1179
205.95	1465
207	498
208	251
211	10
215.25	3000
216.15	13877
217.25	10797
218.15	51596
219.15	10215
220.15	5943
221.15	2480
222.4	809
223.4	144
224.4	34
226.4	154
227.4	84
228.4	246
229.2	417
231.25	50168
232.15	294402
233.15	67581
234.15	21333
235.15	3871
236.2	154
237.2	359
241.2	44
242.2	106
243.95	2834
244.85	3158
245.85	1599
246.9	176
247.9	153
248.9	16
249.9	40
251.9	74
252.9	36
254.9	30
255.9	113
257.9	77
258.9	265
259.9	88
260.9	251
262.15	1301
263.1	500
264.1	108
265.1	225
268.1	176
269.1	33
272.1	10
273.1	7
276.1	30
278.1	118
279.1	35
281.1	84
283.1	20
286.1	36
287.1	7
290.1	329
291.35	824
292.3	4699
293.25	1423
294.3	314
295.3	145
298.3	53
302.3	72
305.15	1378
306.1	7474
307.05	3035
308.05	1223
309.1	304
313.1	12
314.1	162
317.1	165
324.1	108
332.1	90
333	170
334	2836
334.95	826
336	153
337	247
342	2
343	28
344	64
347	25
348.2	166
349.15	1989
350.2	242
351.2	177
352.2	166
355.2	34
359.2	64
360.2	158
363.2	103
366.2	94
372.2	54
373.2	100
376.2	75
377.2	34
382.2	126
383.2	37
387.2	168
388.2	40
389.2	192
392.2	120
395.2	71
398.2	46
403.2	128
405.2	39
406.2	39
408.2	30
409.2	75
413.2	47
416.2	18
419.2	49
421.2	82
423.2	49
425.2	13
426.2	71
427.2	56
430.2	214
431.2	34
433.2	37
434.2	13
436.2	59
439.2	3
440.2	37
447.2	128
449.2	46
450.2	83
454.2	56
456.2	57
458.2	192
460.2	13
461.2	9
463.2	51
464.2	115
466.2	66
469.2	6
474.2	106
478.2	25
483.2	143
485.2	78
490.2	42
496.2	144
498.2	7
503.2	95
504.2	25
505.2	36
507.2	101
511.2	8
513.2	26
516.2	85
518.2	83
520.2	32
523.2	29
524.2	135
526.2	10
529.2	119
530.2	12
532.2	27
540.2	90
542.2	13
544.2	129
547.2	15
548.2	96
60.25	12434
61.2	70833
62.15	4933
63.3	2825
65.3	104
66.3	709
67.3	154
68.25	767
69.25	1240
70.15	3949
71.25	2723
72.25	29809
73.2	200970
74.15	27973
75.1	35749
76.05	3760
77.1	2698
78.1	127
79.1	407
80.1	605
82.25	1077
83.15	1033
84.25	2024
85.25	2812
86.15	4933
87.15	2297
88.1	1875
89.05	1034
90	525
91	2157
92	61
93	308
94	148
95	73
96	155
97.1	1329
98.1	2909
99.15	4323
100.15	24224
101.05	6609
102.05	5770
103.05	6222
104.05	4475
105	7984
105.95	1096
107.1	1400
110.1	267
111.1	313
112.15	3636
113.15	2632
114.1	16611
115.05	5736
116.15	3990
117.05	3788
118.15	1955
119.05	1637
120.1	258
121.1	1336
122.1	51
124.1	219
125.1	62
126.15	461
127.15	28080
128.15	288076
129.05	53261
130.05	18357
131.05	12247
132.05	9177
133	12332
133.95	2686
135	1361
136	24
137	79
140	334
141	661
142.15	894
143.25	724
144.25	3631
145.15	1146
146.15	8852
147.1	55302
148.05	9284
149.15	3787
150.05	784
151.1	748
152.1	137
153.1	81
154.1	284
154.9	281
155.95	1443
156.9	2030
158.25	1210
159.25	2566
160.15	10836
161.15	1578
162.1	721
163.15	1293
164.1	205
165.1	83
169.1	61
170.1	1
171.2	261
172.15	1634
173.25	1803
174.25	2154
175.25	36687
176.15	224441
177.15	37217
178.15	19329
179.15	2232
180.2	150
181.2	46
185.2	322
186.2	276
187.25	1394
188.25	7332
189.15	1230
190.2	536
191.2	208
192.2	105
193.2	23
195.2	67
199.2	176
200.2	87
201.25	2888
202.2	15975
203.15	5969
204.15	2070
205.15	930
206.2	287
210.2	125
212.2	48
213.2	80
214.2	477
216.05	1165
217.15	1941
218.15	16188
219.1	25412
220.05	6655
221.05	2154
222.1	113
223.1	46
225.1	75
228.1	146
229.2	10
230.25	2516
231.15	1397
232.2	6480
233.15	1531
234.2	296
235.2	173
236.2	98
237.2	68
238.2	29
240.2	41
241.2	34
244.1	291
245.1	895
246.1	218
247.1	11
249.15	2115
250.1	16897
251.05	3178
251.9	2494
252.9	366
253.9	80
254.9	31
255.9	10
256.9	94
259.9	63
261.9	401
263.15	2121
264.15	1188
265.2	106
266.2	46
268.2	17
269.2	8
271.2	160
274.2	17
275.2	7
277.1	282
278.1	1300
279.1	224
280.1	261
282.1	2
286.1	12
287.1	11
290.1	4
292.25	3430
293.2	15747
294.15	5210
295.15	1909
296.2	205
299.2	22
300.2	130
303.2	8
307.2	47
308.2	56
312.2	34
313.2	179
314.2	13
317.2	42
323.2	92
326.2	17
327.2	105
330.2	86
331.2	66
336.2	27
337.2	96
339.2	43
343.2	39
344.2	2
345.2	66
349.2	5
352.2	63
354.2	40
356.2	45
360.2	116
363.2	17
364.2	61
367.2	106
369.2	10
370.2	52
371.2	87
373.2	168
376.2	55
377.2	7
379.2	84
383.2	69
385.2	99
392.2	122
396.2	77
402.2	115
404.2	83
405.2	87
407.2	13
410.2	146
412.2	58
414.2	76
416.2	5
418.2	155
420.2	63
426.2	14
427.2	101
429.2	48
436.2	102
438.2	83
440.2	90
441.2	43
445.2	67
447.2	68
450.2	34
451.2	56
453.2	148
458.2	60
464.2	15
465.2	42
466.2	47
468.2	1
470.2	34
473.2	116
474.2	119
477.2	167
478.2	85
482.2	58
483.2	60
485.2	136
488.2	79
492.2	171
494.2	145
498.2	23
501.2	54
503.2	79
504.2	71
505.2	42
510.2	64
512.2	164
514.2	24
516.2	14
517.2	2
518.2	176
525.2	120
533.2	31
535.2	100
537.2	208
542.2	24
544.2	16
546.2	51
547.2	3
60.15	2451
61.05	1724
62.1	541
63.1	57
64.1	63
65.1	56
66.1	186
67.1	208
68.1	306
69.2	99
70.15	2043
71.25	1947
72.25	28749
73.2	218034
74.15	26850
75.1	19987
76.05	2880
77.05	783
78.1	7
80.1	164
82.1	196
83.1	620
84.2	440
85.25	1078
86.15	2131
87.2	515
88.2	638
88.8	400
89.8	950
91.1	1587
92.1	528
93.1	83
95.1	243
96.1	186
97.2	155
98.25	1205
99.25	7152
100.15	55872
101.15	7665
102.2	5165
103.15	2715
104.15	533
105.1	1750
106.1	332
107.1	506
109.1	101
110.1	7
111.1	48
112.1	486
113.05	772
114.05	4974
115.05	11259
116	18135
116.95	4461
117.95	2765
119.1	2681
120.1	348
121.1	193
123.1	12
126.1	112
128.15	779
129.15	1731
130.15	5268
131.15	9195
132.1	24350
133.05	12676
134.05	2969
135.05	903
136.1	91
137.1	80
141.1	221
142.1	96
143.1	393
144.15	1124
145.15	751
146.15	12567
147.1	37981
148.05	10827
149.05	5531
150.05	688
151.1	167
152.1	323
154.1	67
155.1	1
157.1	316
158.15	2297
159.05	553
160.2	1161
161.2	313
162.15	926
163.1	3428
164.05	637
165.1	635
166.1	62
167.1	20
169.1	9
171.1	211
172.1	1543
173.1	373
174.1	1434
175.1	365
177.1	230
178.1	1
182.1	170
185.1	44
187.1	250
187.7	674
188.65	921
190.05	981
191	430
192	70
193	237
197	8
200	163
202.1	214
203.15	2280
204.1	7941
205.05	3630
206.05	1680
207.1	334
209.1	47
211.1	35
215.1	71
216.15	316
217.15	13093
218.15	119978
219.25	37797
220.15	133054
221.15	30072
222.15	18586
223.15	2681
224.15	761
228.2	28
231.1	462
232.15	3720
233.05	903
233.8	875
235.8	268
237.8	43
238.8	47
240.8	34
242.8	86
243.8	198
245.8	629
246.8	130
247.8	217
248.8	9
249.8	60
251.8	15
253.8	14
254.8	68
261.8	139
266.8	109
268.8	16
271.8	13
274.8	138
275.8	11
276.8	30
282.8	194
284.8	46
285.8	51
287.8	20
293.15	561
294.1	6832
295.05	2291
296.1	1178
297.1	194
301.1	79
303.1	246
304.1	12
305.1	181
306.1	11
307.1	182
314.1	45
319.1	74
322.1	1069
323.1	254
325.1	228
327.1	39
328.1	89
329.1	51
332.1	5
333.1	17
334.1	76
337.1	74
338.1	101
339.1	85
343.1	23
345.1	140
346.1	14
351.1	121
353.1	93
357.1	78
361.1	68
362.1	18
363.1	1
365.1	9
366.1	58
369.1	71
378.1	164
380.1	66
381.1	8
386.1	77
393.1	163
399.1	6
401.1	97
402.1	45
403.1	102
405.1	70
410.1	50
412.1	29
413.1	56
415.1	50
418.1	4
423.1	43
425.1	54
427.1	13
428.1	38
432.1	125
433.1	17
435.1	49
437.1	33
442.1	13
445.1	64
446.1	28
449.1	7
450.1	78
452.1	4
456.1	46
461.1	96
462.1	24
464.1	38
469.1	59
470.1	17
474.1	24
477.1	128
485.1	32
486.1	80
487.1	63
491.1	18
493.1	94
496.1	43
497.1	23
498.1	61
501.1	27
503.1	37
504.1	42
505.1	15
507.1	80
508.1	49
514.1	81
517.1	42
519.1	87
520.1	7
521.1	13
525.1	68
527.1	9
529.1	50
530.1	108
536.1	66
537.1	25
541.1	62
543.1	18
544.1	38
545.1	81
546.1	16
549.1	86
550.1	15
60.1	2210
61.05	2285
62.1	205
63.1	123
65.1	174
66.4	1046
67.4	471
68.4	808
69.2	222
70.15	1217
71.25	1025
72.25	25948
73.15	169775
74.15	21967
75.1	33275
76.05	4367
77.05	720
78.1	184
80.1	168
82.25	1082
83.25	4256
84.2	32470
85.15	3833
86.1	2508
87.05	1108
88.1	728
89.1	626
92.1	26
93.1	186
94.1	43
95.1	470
96.1	32
97.1	608
98.15	1731
99.15	3702
100.15	16948
101.05	5073
102.05	1969
103.2	1683
105.2	592
106.2	79
107.2	49
108.2	3
109.2	274
110.2	89
110.9	164
111.95	1770
112.95	5421
113.9	5925
114.85	6106
115.85	2182
117.05	5212
118.05	1080
118.95	1790
119.9	240
120.9	119
121.9	70
123.9	168
126.15	498
127.15	11722
128.15	93151
129.05	24488
130.05	9951
131.05	6938
132.05	5748
133	13449
133.95	3271
135	1288
136	322
137	134
139.15	1675
140.1	7528
141.05	1317
142.05	875
143.15	1014
144.05	1038
145.15	716
146.15	4859
147.1	47035
148.05	12008
149.05	11266
149.95	2768
151	471
152	154
153	48
154.25	443
155.25	6614
156.15	45701
157.15	7997
158.05	7825
158.95	2420
159.95	852
161	413
162	654
163	679
164	195
165	146
167	57
168	227
169	175
170	135
172.15	1314
173.05	645
174.05	2520
175.1	329
176	656
177	1090
178	139
179	159
181	11
184	501
185	157
186	481
187	155
188.4	908
189.4	643
190.4	173
191.4	259
193.4	33
195.4	25
196.4	18
197.4	95
198.4	314
200.4	256
201.2	265
202.25	2490
203.25	1557
204.2	5112
205.15	1451
206.2	244
209.2	123
213	77
214.05	2118
215.45	1235
216.35	922
217.25	1106
218.2	7032
219.15	2008
220.25	1211
221.2	2831
222.15	598
223.2	478
225.2	69
227.2	106
228.2	143
229.25	6073
230.15	30463
231.15	7210
232.15	3815
233.2	191
234.2	61
235.2	124
237.2	18
238.2	56
241.2	47
243.2	220
244.25	37
245.25	31328
246.15	151554
247.15	41637
248.15	14370
249.15	2174
250.2	308
254.2	103
257.1	313
258.15	3754
259.05	1048
260.1	598
261.1	39
263.1	11
266.1	59
269.1	125
272.1	244
273.35	874
274.4	1409
275.4	210
276.4	214
277.4	82
278.4	85
280.4	54
281.4	26
283.4	100
285.4	54
286.4	30
289.4	5
291.4	1
293.4	171
295.4	5
297.4	23
299.4	82
301.4	7
302.4	217
307.4	93
310.4	103
314.4	45
316.4	88
317.4	103
318.4	27
319.2	426
320.2	1470
321.2	400
322.2	97
324.2	63
327.2	128
329.2	97
330.2	22
331.2	172
332.2	101
339.2	87
343.2	3
347.45	1643
348.4	6178
349.35	2252
350.35	900
351.4	10
355.4	13
356.4	18
362.1	218
363.1	3190
364.05	737
365.1	120
366.1	93
371.1	41
373.1	48
376.1	123
381.1	122
387.1	9
389.1	55
394.1	22
395.1	2
396.1	19
397.1	63
398.1	13
399.1	36
404.1	90
406.1	81
408.1	82
411.1	105
412.1	46
413.1	4
414.1	71
418.1	23
425.1	31
426.1	124
427.1	23
428.1	147
432.1	55
435.1	21
437.1	37
438.1	24
439.1	48
442.1	17
445.1	63
446.1	42
452.1	14
454.1	121
456.1	153
458.1	83
464.1	7
469.1	93
471.1	48
479.1	1
482.1	31
484.1	7
485.1	114
487.1	44
488.1	70
493.1	84
502.1	23
505.1	7
511.1	91
512.1	50
515.1	66
516.1	16
518.1	26
519.1	40
520.1	35
523.1	24
528.1	22
530.1	117
536.1	110
537.1	85
539.1	10
541.1	41
545.1	94
547.1	61
60.05	2520
61.05	2467
62	345
63.35	637
64.35	1347
65.25	7372
66.25	1495
68.3	261
69.25	959
70.15	1900
71.25	1868
72.25	50372
73.2	332537
74.15	42346
75.1	33790
76.05	3883
77.2	3245
78.2	346
79.2	181
80.2	521
81.2	377
82.2	72
83.1	525
84.15	1635
85.15	1032
86.15	4711
87.05	1413
88.15	985
89.15	2273
90.15	3185
91.15	26091
92.05	5468
93.05	841
94.1	79
95.1	370
96.1	144
97.1	571
99.15	8436
100.15	83940
101.05	14525
102.05	5046
103.05	7962
104.05	2146
105.05	2476
106	268
107	535
109	134
110	174
111	159
112	129
113	179
114.15	733
115.15	4032
116.15	1953
117.1	6550
118.05	3267
119.1	5204
119.9	1964
120.9	4813
121.85	951
122.9	568
123.9	101
124.9	77
125.9	202
126.9	273
128.15	711
129.15	4055
130.15	13933
131.05	14465
132.05	17778
133.05	14091
134.05	3688
135	4275
135.95	701
137	202
138	122
140	30
141	75
142	78
143.1	589
144.05	2126
145.15	2638
146.15	11166
147.15	70961
148.05	16431
149.05	6129
150.05	1009
151.1	16
152.1	5
155.1	27
156.1	80
158.05	954
159.05	3340
160.05	8612
160.95	3506
162.15	4718
163.15	5581
164.05	1525
165.05	660
166.1	98
168.1	96
170.1	189
171.1	27
172.05	836
173.05	776
174.05	2843
175.05	1995
176.05	5200
177.05	7349
177.95	1657
179	361
182	161
183	58
184	225
186	306
188	749
189.2	286
190.25	1979
191.25	21051
192.2	167666
193.15	30927
194.15	6455
195.15	735
196.2	122
200.2	53
202.15	1363
203.15	3622
204.1	5799
205.05	1335
206.05	671
207.1	155
209.1	8
211.1	44
215.1	59
217.25	41063
218.15	253979
219.15	57441
220.15	22035
221.15	3355
222.2	27
223.2	169
226.2	51
227.2	78
228.2	54
232.2	83
234.2	160
235.2	233
236.2	13
238.2	78
243.2	59
244.2	58
246.2	94
250.2	158
251.2	298
252.2	29
253.2	42
254.2	42
259.2	21
264.2	232
265.25	3172
266.2	18615
267.15	8305
268.15	2948
269.2	241
271.2	106
273.2	78
274.2	17
275.2	2
276.2	101
278.2	464
280.2	109
282.2	31
283.2	22
284.2	57
286.2	62
288.2	21
290.2	14
291.2	93
292.2	454
293.1	145
294.1	5160
295.05	1166
296.1	612
297.1	51
298.1	51
299.1	2
303.1	273
305.1	63
306.1	24
307.1	196
308.1	24
309.1	35
310.1	54
311.1	112
317.1	18
325.1	14
326.1	18
329.1	33
339.1	1
342.1	31
345.1	44
347.1	236
349.1	63
350.1	58
351.1	36
358.1	99
365.1	135
366.1	98
370.1	40
380.1	24
387.1	17
388.1	10
392.1	59
394.1	78
396.1	53
400.1	38
403.1	95
405.1	66
406.1	9
407.1	126
408.1	18
409.1	53
412.1	143
414.1	159
420.1	15
423.1	168
427.1	105
428.1	77
430.1	39
431.1	177
441.1	16
443.1	46
444.1	5
447.1	112
448.1	53
450.1	97
453.1	30
460.1	10
463.1	68
465.1	137
469.1	131
472.1	185
475.1	18
477.1	37
483.1	41
485.1	34
486.1	47
488.1	148
489.1	112
490.1	2
493.1	104
498.1	43
502.1	193
503.1	15
506.1	8
508.1	3
519.1	24
522.1	104
523.1	19
526.1	74
528.1	80
533.1	21
534.1	7
544.1	17
548.1	95
60.1	1716
61.1	3941
62.1	246
63.1	142
65.1	300
66.1	1029
67.1	167
68.25	687
69.25	1566
70.15	3644
71.25	1758
72.25	30034
73.2	197842
74.15	35176
75.1	42643
76.05	5173
77	1500
79	217
80	163
81	18
82	400
83.25	930
84.25	1066
85.25	1113
86.25	2441
87.25	1320
88.25	787
89.25	1136
90.2	2119
91.2	545
94.2	153
95.2	419
96.2	52
97.1	493
98.05	1322
99.15	2565
100.15	26684
101.05	4763
102.15	4174
103.15	1362
104.2	582
105.2	399
107.2	170
110.2	134
111.2	89
113.15	1596
114.15	9042
115.15	27725
116.1	169284
117.05	26975
118.05	8425
119.05	2286
120.1	518
121.1	286
122.1	130
124.2	426
125.15	2768
126.15	871
127.25	1900
128.2	7149
129.1	2622
130.15	10023
131.15	32420
132.1	80279
133.05	21072
134.05	3781
135.05	1190
136.1	131
137.1	65
138.1	135
139.2	32
140.25	5198
141.2	33824
142.15	6986
143.15	3966
144.1	3719
145.05	991
146.15	5583
147.15	40574
148.05	9744
149.05	6019
150.05	1701
151.1	271
152.1	281
153.1	507
154.1	184
155.1	103
156.2	556
157.25	1095
158.25	2879
159.15	14078
160.15	1308
161.15	983
162.1	76
163.1	1826
164.1	228
165.1	127
167.1	24
168.2	441
169.15	2850
170.15	930
171.25	871
172.15	6066
173	1665
174.05	3766
174.95	2290
176.6	572
177.6	315
178.6	155
181.6	79
184.6	424
185.6	250
187.25	5056
188.2	32003
189.15	6959
190.1	5705
191.05	1394
192.1	235
197.1	188
198.1	336
199.4	932
200.2	332
201.25	2656
202.2	10659
203.15	2742
204.15	4668
205.05	1127
206.1	601
207.1	359
208.1	97
211.1	72
212.1	119
213.25	2221
214.25	1479
215.25	7211
216.15	3653
217.15	3275
218.15	12570
219.05	2976
220.05	1047
221.1	403
224.1	35
226.1	70
227.1	237
228.2	154
229.15	1192
230.25	8782
231.2	73514
232.15	17726
233.15	5919
234.15	1188
235.2	62
237.2	87
241.1	495
242.15	1146
243.1	3800
244.05	1744
245.1	2500
247.1	40
248.1	25
249.1	85
250.1	24
252.1	105
255.1	121
257.25	1971
258.25	13451
259.15	3916
260.15	1220
261.1	184
262.15	1262
263.1	119
264.1	107
266.1	42
270.1	136
271.1	38
272.1	75
274.1	58
276.1	120
278.1	159
279.1	20
283.1	71
285.1	199
286.1	18
288.1	16
290.1	31
291.1	58
292.1	385
293.1	70
294.1	29
295.1	152
300.1	107
303.1	57
305.1	87
307.1	195
311.1	10
316.45	1664
317.4	475
318.4	492
319.4	91
322.4	63
325.4	6
330.4	11
331.4	126
332	81
333.05	2446
334.05	1092
334.95	697
336	197
337	88
339	12
343	20
345	157
347.2	345
348.25	2776
349.2	277
350.2	349
351.2	246
352.2	67
353.2	167
355.2	92
359.2	342
361.2	15
366.2	121
367.2	52
369.2	1
371.2	64
372.2	125
373.2	92
375.2	121
378.2	48
380.2	16
383.2	107
384.2	47
386.2	30
389.2	1
390.2	76
391.2	52
397.2	45
398.2	91
399.2	151
401.2	69
405.2	20
409.2	17
413.2	20
415.2	204
418.2	40
420.2	46
422.2	95
424.2	21
426.2	46
431.2	103
435.2	55
436.2	44
437.2	27
438.2	18
440.2	33
442.2	42
452.2	168
456.2	53
459.2	5
460.2	16
461.2	41
462.2	19
465.2	44
467.2	42
468.2	5
470.2	89
472.2	35
477.2	133
480.2	33
483.2	17
492.2	37
494.2	48
495.2	75
499.2	37
501.2	79
504.2	36
508.2	35
512.2	153
518.2	55
520.2	187
523.2	118
528.2	4
529.2	130
535.2	35
538.2	29
539.2	14
540.2	73
545.2	12
548.2	55
549.2	54
60	475
61	909
63	84
65	72
66	273
68	56
69	99
70	558
71.25	428
72.25	6042
73.15	42363
74.15	6585
75.1	10080
76.05	1492
77.1	564
80.1	160
81.1	124
82.1	411
83.15	1384
84.1	439
85.1	501
86.1	408
87.1	300
88.1	60
89.1	282
90.1	121
91.1	110
92.1	227
93.1	36
95.1	280
97.1	215
98.1	308
99.25	793
100.2	3115
101.2	522
102.2	343
103.2	559
104.2	37
105.2	3
110.2	118
111.2	115
112.15	1741
113.25	1312
114.2	3473
115.25	2158
116.15	1459
117.15	1074
118.1	155
119.1	279
120.1	76
123.1	18
124.1	69
126.15	1475
127.15	727
128.15	5536
129.05	2922
130.25	1160
131.25	3965
132.15	1728
133	1882
133.95	703
135	531
138	303
139	3055
139.95	1027
141	204
142.2	1539
143.2	112
144.1	597
145.15	1558
146.15	1651
147.15	8866
148.05	1401
149.1	1420
150.1	174
154.25	1564
155.25	19658
156.15	47179
157.15	8803
158.15	1323
159.2	136
160.2	408
161.2	55
162.2	281
163.2	63
164.2	114
165.2	150
167.2	162
168.2	61
172.2	461
173.2	318
174.2	106
176.2	141
177.2	52
179.2	26
181.2	134
183.2	6
185.2	172
188.1	1016
189.1	492
190.1	59
191.1	120
193.1	7
194.1	13
195.1	13
197.1	199
198.1	52
200.1	265
202.1	206
203.15	2550
204.05	1018
205.1	636
209.1	59
210.1	91
211.1	130
212.1	28
213.1	441
214.1	542
215.1	67
216.1	385
217.1	595
218	894
219	398
221	497
222	90
224	98
226	233
227	237
228.15	791
229.05	2223
230.2	978
231.2	347
232.2	1091
233.2	368
234.2	73
237.2	87
240.2	142
243.2	95
244.15	560
245.15	6490
246.05	1802
247.1	524
248.1	44
252.1	68
254.1	7
255.1	147
256.1	159
257.1	710
258.1	339
260.1	45
265.1	59
271.1	161
272.1	202
273.1	635
274.1	224
275.1	197
276.1	82
277.1	38
282.1	38
286.1	105
290.1	17
292.1	308
294.1	1
300	343
301	933
303	33
304	18
305	61
311	106
312	24
314	25
319	107
321	91
322	120
323	51
331	36
333	32
335	194
337	16
339	37
340	7
342	45
343	34
346	218
347.25	1274
348.3	420
354.3	69
356.3	48
357.3	31
358.3	37
360.3	42
362.3	281
363.3	15
365.3	52
366.3	121
368.3	180
370.3	33
371.3	53
375.3	45
376.3	23
379.3	48
381.3	28
383.3	7
387.3	61
388.3	201
395.3	18
396.3	24
399.3	95
400.3	41
402.3	12
403.3	118
404.3	42
406.3	96
410.3	5
411.3	47
413.3	3
414.3	48
417.3	35
421.3	63
424.3	65
429.3	48
431.3	50
434.3	59
437.3	31
439.3	24
440.3	45
441.3	135
447.3	53
449.3	69
451.3	57
455.3	87
457.3	185
459.3	38
461.3	42
462.3	21
466.3	152
470.3	151
475.3	108
477.3	156
478.3	10
479.3	16
485.3	171
490.3	103
494.3	13
495.3	48
497.3	119
501.3	110
503.3	65
506.3	36
508.3	79
511.3	114
514.3	78
519.3	1
520.3	99
522.3	30
523.3	6
530.3	30
534.3	23
535.3	70
537.3	48
544.3	114
546.3	116
549.3	57
60.05	5681
61	4244
61.95	637
65	43
66.1	447
67.15	3412
68.1	5682
69.05	1613
70.2	3176
71.25	3006
72.25	73386
73.15	494511
74.15	59527
75.15	26754
76.15	2510
77.15	478
78.2	138
79.2	170
80.15	782
81.25	2034
82.2	8684
83.15	2764
84.15	9591
85.15	11022
86.15	51916
87.05	10880
88.15	31414
89.05	3635
90.2	1202
92.2	172
93.1	199
94.1	2559
95.1	364
96.1	374
97.15	2743
98.15	5108
99.15	9450
100.15	66713
101.05	12193
102.1	20836
103.05	7671
104.05	1220
104.85	964
105.8	369
107.8	281
108.8	395
110.05	1204
111.15	2936
112.1	20348
113.15	7405
114.15	28410
115.05	36156
116.05	12197
116.95	13805
117.85	4389
118.95	3092
119.9	316
120.9	76
123.25	1045
124.15	2332
125.25	2540
126.15	12234
127.25	25305
128.15	156613
129.15	27810
130.1	39897
131.05	22562
132.05	18902
133	20620
133.95	4598
134.95	1164
136	615
137.1	162
138.15	2369
139.15	3544
140.1	27637
141.05	6014
142.1	13640
143.05	5102
144.15	4325
145.15	3024
146.15	26728
147.1	73368
148.05	15827
149.05	7043
150.05	1311
151.25	7338
152.15	2422
153.25	3887
154.25	28475
155.25	83371
156.2	536947
157.15	92189
158.15	27834
159.15	4935
160.15	9872
161.15	3622
162.15	1712
163.1	302
164.1	1857
165.25	722
166.2	6273
167.15	3080
168.15	3574
169.25	2291
170.15	3894
171.25	4032
172.25	14178
173.25	50043
174.2	385428
175.15	81967
176.15	29477
177.15	4275
178.2	161
179.2	214
180.2	362
181.2	624
182.2	1887
183.25	842
184.15	3163
185.25	1857
186.2	12644
187.15	3302
188.3	5137
189.25	2442
190.25	1591
191.2	6473
192.15	1000
193.2	456
195.2	14
196.2	560
197.2	324
198.25	1700
199.25	4631
200.2	30562
201.15	8047
202.05	11778
203.05	4400
204.25	2075
205.15	993
206.2	787
207.2	131
209.2	122
210.2	278
212.15	2910
213.15	4744
214.1	12708
215.05	5518
216.15	7000
217.15	7002
218.1	14580
219.05	6697
220.2	4272
221.15	2165
222.2	226
223.2	794
224.2	281
226.15	1118
227.25	4035
228.25	37063
229.25	20397
230.2	101844
231.15	22391
232.15	9478
233.15	1856
234.2	158
236.2	274
237.2	61
238.2	374
239.25	1740
240.2	3514
241.25	1480
242.15	1415
243.15	1633
244.1	2241
245.15	1503
246.05	1411
246.8	279
247.85	1041
250.8	137
253.5	709
254.55	1050
255.5	2434
256.45	1782
257.55	1915
258.45	1656
259.55	1236
260.45	1873
261.5	332
262.5	244
263.5	221
264.5	59
266.5	82
267.5	38
268.5	17
270.3	112
271.35	1990
272.35	4628
273.35	5055
274.25	2713
275.25	766
276.3	324
277.3	37
280.3	38
285.3	221
286.3	145
287.3	562
288.3	175
289.3	290
291.3	269
292.3	400
295.3	72
297.3	51
300.3	509
301.35	756
302.3	2315
303.3	448
304.35	1400
305.3	406
306.3	51
307.3	145
309.3	52
310.3	8
311.3	39
312.3	39
313.3	234
314.3	40
316.35	21997
317.35	122001
318.25	41773
319.25	16916
320.25	3878
321.25	600
322.3	101
325.3	27
326.3	36
327.3	924
328.35	2649
329.3	10271
330.25	5249
331.25	1965
332.3	199
333.3	87
334.3	25
335.3	38
336.3	32
341.3	77
344.3	441
345.3	202
346.3	107
347.3	115
351.3	64
359.3	212
361.3	101
362.3	44
363.3	206
365.3	18
368.3	8
375.3	93
376.3	22
380.3	28
382.3	18
385.3	26
389.3	115
390.3	56
391.35	2866
392.25	661
393.3	224
394.3	126
395.3	89
396.3	82
398.3	8
401.3	61
402.3	41
404.3	112
406.3	115
410.3	3
411.3	45
412.3	26
413.3	22
415.3	66
417.3	65
417.9	151
418.9	2440
419.85	1953
420.8	964
421.8	304
423.8	281
424.8	116
426.8	46
428.8	13
433.45	3058
434.4	11702
435.35	3979
436.35	1985
437.35	653
438.4	14
439.4	23
443.4	46
446.4	113
447.4	56
448.4	181
450.4	2
458.4	21
460.4	141
462.4	4
463.4	179
467.4	57
470.4	138
471.4	59
474.4	64
477.4	49
479.4	108
481.4	29
482.4	13
486.4	51
488.4	98
491.4	137
494.4	128
495.4	4
501.4	19
503.4	4
507.4	59
508.4	30
511.4	27
512.4	124
517.4	116
522.4	60
523.4	7
525.4	92
527.4	86
529.4	103
532.4	25
533.4	44
538.4	49
541.4	219
544.4	13
546.4	13
547.4	30
60.15	779
61.2	593
62.2	16
64.2	145
65.2	708
67.2	28
68.2	391
70.25	856
71.25	544
72.25	27515
73.15	173002
74.15	17309
74.95	14759
75.95	2250
77.3	693
78.35	846
79.3	129
81.3	295
82.3	33
83.3	254
84.3	395
85.1	503
86.1	2131
87.05	1091
88.1	343
89.15	1541
90.15	854
91.1	2889
92.1	507
93.1	187
94.1	48
95.1	520
96.1	80
97.1	244
98.1	299
99.15	5941
100.05	49656
101.05	7068
102.05	2952
103.05	1673
103.9	712
104.9	1868
105.9	143
106.9	297
107.9	149
108.9	434
109.9	61
112.9	95
113.9	196
114.95	2576
115.95	1236
116.9	2848
117.95	2594
118.85	1579
119.9	277
120.8	1038
121.8	43
122.8	267
123.8	81
125.8	411
127.8	431
128.95	648
129.95	4575
130.95	4743
131.95	7583
132.9	9662
133.85	2177
134.9	2489
135.85	985
136.9	149
138.9	26
140.9	48
141.9	56
142.9	249
143.9	501
145.1	175
146.15	6416
147.05	31365
148.05	6250
149	5392
149.95	826
150.65	705
151.6	877
152.6	18
154.6	189
155.6	127
157.6	293
158.95	1337
159.9	2098
160.85	1219
162.05	1297
163.05	6947
163.95	2258
165.1	3214
166.1	495
167.1	406
169.1	27
170.1	33
171.1	158
172.1	278
173.15	779
174.05	2140
175.15	1401
176.15	2030
177.05	2165
178.15	2379
179.1	16583
180.05	3158
181.05	1080
182.1	360
186.1	93
188.1	238
189	297
190	1265
191.05	1197
192.05	4406
192.95	2093
194	457
195	283
201	103
202	45
203	1890
204	487
205	574
206.25	869
207.25	1783
208.2	727
209	942
210	164
212	21
213	222
215	128
217.15	25017
218.1	216946
219.05	51544
220.05	18310
221.05	2436
223.1	759
224.1	290
225.1	44
226.1	39
230.1	54
232.1	18
233.1	76
234.1	746
235.1	198
236.1	23
237.1	223
238.1	159
239.1	76
241.1	37
242.1	96
247.1	53
248.1	725
249.1	350
250.1	850
251.1	149
252.1	102
254.1	34
257.1	4
258.1	92
262.1	64
263.1	3
264.1	391
265.1	3094
266.05	733
267.1	396
268.1	32
270.1	21
272.1	51
273.1	155
277.1	44
278.15	539
279.15	5843
280.05	24113
281.05	7274
282.05	1347
283.1	14
284.1	214
290.1	50
291.1	232
292.3	1653
293.3	318
294.3	201
296.3	59
297.3	102
301.3	6
307.3	175
314.3	132
317.3	74
322.3	2
325.3	26
327.3	29
331.3	3
332.3	115
334.3	18
337.3	69
338.3	41
340.3	35
348.3	48
350.3	93
352.3	104
354.55	9309
355.55	1678
356.55	725
357.6	367
359.6	172
362.6	168
364.6	74
366.6	85
369.6	15
371.6	52
372.6	193
377.6	34
381.45	1005
382.35	2228
383.4	311
384.4	50
385.4	121
386.4	60
390.4	82
391.4	5
394.4	3
398.4	33
402.4	5
409.4	123
413.4	22
414.4	79
415.4	32
420.4	61
422.4	98
428.4	40
429.4	95
431.4	77
432.4	50
434.4	19
436.4	114
437.4	66
438.4	47
440.4	32
444.4	24
446.4	50
448.4	113
452.4	247
454.4	19
455.4	66
457.4	144
458.4	47
462.4	49
471.4	16
473.4	22
477.4	17
478.4	11
480.4	74
483.4	55
487.4	3
493.4	49
496.4	87
498.4	7
500.4	110
503.4	42
506.4	46
510.4	3
513.4	72
514.4	4
515.4	28
516.4	44
519.4	13
521.4	40
525.4	100
529.4	77
531.4	185
533.4	55
534.4	37
535.4	83
539.4	78
541.4	12
542.4	18
547.4	69
550.4	22
60	474
61	352
62	148
63	82
68	41
69	79
70.15	1152
71.25	777
72.25	28243
73.2	224908
74.15	25493
75.1	12087
76.05	1247
77.1	939
79.1	20
82	9
83.1	353
84	246
85	16
86.35	870
87.1	227
89.3	358
90.1	250
93.1	234
96.1	27
99.25	2343
100.15	12492
101.15	6098
102.15	2325
103.1	1683
104.1	363
105.15	1405
106.1	73
107.1	258
108.1	71
109.1	4
110.1	193
113.1	277
114	339
114.95	1742
116.05	807
117.1	1972
118.05	749
119.1	903
120.1	27
121.1	282
122.1	49
124.2	136
126.2	20
127.1	194
128.15	1080
129.15	5384
130.1	9365
131.05	4394
132.15	5052
133	3344
133.85	1105
134.9	135
135.9	89
137.9	61
140	103
140.9	18
141.9	409
142.9	549
144.15	1188
145.15	3046
146.15	3288
147.15	13593
148.05	2662
149.05	932
150.1	64
150.7	95
151.6	1052
152.6	268
153.6	275
154.6	52
156	1289
157.45	844
158.45	1019
159.5	2413
160.45	1409
161.5	480
162.5	210
162.7	716
164.5	139
164.7	100
168.5	235
169.15	738
170.15	1532
171.15	771
172.1	2029
173.05	997
174.2	1270
175.15	553
176	130
179.2	222
183.2	260
184.2	1313
185.25	1319
186.15	2300
187.25	1468
188.15	2264
189.25	1348
190.15	3853
191.05	1147
192.1	75
195.2	96
197.2	137
198.25	1156
199.25	2521
200.25	8203
201.25	40334
202.2	269281
203.15	62093
204.15	18573
205.15	2742
206.2	223
207.2	149
208.2	27
209.2	79
210.2	20
211.2	276
212.2	98
213.2	213
214.25	856
215.2	1560
216.2	303
217.25	2273
218.2	15456
219.15	2311
220.15	1698
221.2	292
222.1	98
223.2	51
224.1	86
225.1	153
227.2	61
228.2	621
229.15	963
230.15	3398
231.05	1451
232.1	272
233.1	178
236.1	148
238.1	97
239.1	34
241.1	138
242.1	309
243.1	50
244.1	6
246.1	469
247.1	407
248.2	1077
249.2	122
250.2	83
254.2	2
256.2	27
257.2	45
258.2	227
259.2	38
260.2	158
261.2	18
264.2	105
265.2	5
270.2	3
272.2	130
273.2	435
274.2	131
275	189
275.9	1015
277	76
277.9	92
279.9	15
283	19
284.9	73
286	41
287	165
288	368
289.25	283
290.25	5949
291.2	32668
292.15	11562
293.15	4171
294.15	917
295.2	255
297.2	35
299.2	23
301	139
302.15	1234
303.05	2858
304.05	1114
305	139
306.1	238
310	81
312.1	231
314.1	101
315.1	405
317.1	293
318	26
319.1	92
322.1	82
326.1	32
328.1	88
330.1	111
331.1	135
332.1	17
335.1	64
336	44
340	6
341.1	48
344.1	53
345	13
347.1	79
348	33
350.1	81
351	49
353.1	50
355	14
360.1	10
362	3
363.1	140
368.1	17
370	12
371.1	26
373	66
374	78
375	33
376	133
377	1288
378.05	797
379	378
380.1	41
382	92
385	37
388.1	79
394	3
396.1	10
397	40
400.1	116
401	14
403.1	39
405.3	2261
406.3	285
407.3	346
408.3	227
409.3	1
411.3	27
412.3	59
414.3	45
417.3	76
419.3	190
420.3	148
422.3	88
423.3	61
426.3	18
427.3	50
430.3	99
431.3	87
434.3	82
435.3	46
437.3	56
440.3	114
450.3	34
451.3	7
453.3	76
455.3	63
456.3	63
459.3	89
461.3	46
462.3	59
464.3	67
467.3	121
469.3	26
471.3	162
473.3	43
474.3	17
475.3	64
476.3	25
477.3	2
483.3	49
484.3	84
486.3	42
488.3	81
490.3	103
493.3	114
496.3	137
500.3	11
501.3	12
505.3	39
508.3	49
510.3	20
515.3	101
516.3	34
518.3	14
519.3	50
520.3	50
525.3	59
528.3	94
533.3	30
534.3	73
535.3	2
538.3	132
541.3	1
542.3	20
544.3	87
549.3	152
550.3	30
60	163
61	14
62	48
63	9
66	91
67	1
71	195
72.25	2126
73.15	13921
74.15	1654
75.15	450
77.2	185
78.2	97
81.2	256
82.2	484
83.2	16
84.2	270
85.2	220
86.2	123
89.2	166
90.2	17
95.2	52
96.2	50
97.2	123
98.2	56
99.2	224
100.2	728
105.2	208
109.2	98
110.2	69
111.2	103
112.2	300
113.2	50
114.2	24
115.2	3
117.2	201
119.2	98
120.2	103
122.2	161
123.2	29
124.2	287
126.2	51
127.2	27
128.2	125
129.2	80
131.2	333
133.2	246
134.2	9
138.2	14
139.2	30
141.2	264
142.2	6
145.2	27
146.2	102
147.2	597
148.2	79
150.2	97
153.25	3207
154.15	17342
155.15	3882
156.15	642
157.2	60
158.2	80
160.2	9
161.2	55
162.2	5
163.2	283
165.2	70
166.2	448
167.2	57
170.2	129
176.2	35
179.2	405
182.2	262
183.2	4
186.2	106
189.2	19
192.2	26
194.2	20
195.2	20
196.2	28
200.2	169
202.2	86
203.2	283
209.2	26
210.2	37
212.2	125
215.2	30
217	59
218	1258
219	48
220	211
221	65
224	11
226	414
228	22
233	49
236	57
238	385
239	167
240	321
241	22
244	65
253.2	162
254.2	3175
255.05	1059
256.2	48
257.2	170
261.1	45
262.1	57
264.1	99
266.2	239
268.1	109
269.1	47
271.1	33
276.2	28
277.1	23
278.2	59
281.1	32
284.2	36
285.2	6
288.2	38
296.1	153
300.1	76
301.2	5
303.1	49
305.1	27
306.2	25
314.1	97
316.1	57
318.2	120
319.1	23
322.1	103
324.1	29
325.1	19
328.2	124
330.2	71
335.2	64
337.2	139
338.2	17
340.1	100
344.1	2
345.2	79
348.1	14
349.2	9
351.1	77
353.2	111
356.1	462
360.2	13
364.2	190
367.2	151
369.2	22
370.2	15
371.1	65
372.1	65
375.1	17
379.1	17
383.1	12
384.1	1
385.1	3
386.1	64
393.2	3
394.2	64
395.2	34
399.1	42
401.1	68
402.1	47
403.1	3
405.1	65
406.2	62
408.2	11
413.2	22
416.1	9
420.1	116
421.2	14
424.2	55
426.1	11
427.2	12
431.2	5
432.1	6
434.1	5
436.2	56
437.2	27
441.2	10
445.1	64
448.1	11
453.1	14
454.2	13
460.1	95
462.2	11
466.1	168
468.2	4
469.2	5
470.1	71
478.2	26
480.1	54
482.1	42
485.2	29
486.2	16
487.2	51
490.1	64
492.1	65
494.2	108
496.2	7
497.1	58
500.1	44
504.1	43
506.1	18
507.2	22
512.1	65
515.1	40
516.1	20
519.2	40
521.2	89
522.1	11
525.1	71
530.2	116
533.2	66
536.2	65
540.2	110
542.2	20
543.1	8
545.2	73
548.1	23
60	579
61.3	862
62.3	65
65.2	327
66.2	3052
67.15	761
70.2	496
71.2	306
72.25	6546
73.2	50262
74.15	6110
75.15	4763
76.05	574
77.1	179
80.5	1446
81.5	418
82.5	107
86	1322
87	1350
88	563
89	245
91	25
93	23
94	517
95	316
98	101
99	34
100.15	533
101.15	5269
102.15	71776
103.05	11580
104.05	3176
105.1	124
106.1	24
108.1	1
109.1	53
114.1	242
115.1	597
116.1	143
117.1	945
118.1	197
119.05	948
121.1	119
124.1	130
125.1	40
126.1	232
128.1	47
130.1	302
131.1	2789
132.05	596
133	2060
134	225
137	57
139	93
140	44
142	86
143	20
144	106
145	102
146.15	1486
147.1	24255
148.05	4836
149.05	1526
150.1	34
152.1	15
154.1	182
157.1	168
158.1	34
159.1	72
160.1	164
166.1	62
168.1	44
172.1	81
173.1	12
174.1	111
175.2	418
176.25	3581
177.15	592
178.2	195
179.2	374
182.2	2
186.2	13
188.2	35
191.2	66
194.2	137
197.2	123
198.2	96
203.25	911
204.2	3952
205.15	614
206.2	194
209.2	49
210.2	28
213.2	7
214.2	177
215.2	59
218.2	16
219.2	90
222.2	114
226.2	58
227.2	3
230.2	63
234.2	5
237.2	30
239.2	72
240.2	18
241.2	26
243.2	103
249.2	45
250.2	79
251.2	32
258.2	36
261.2	29
262.2	81
267.2	67
271.2	140
272.2	15
274.2	19
279.2	137
280.2	41
282.2	5
284.2	113
287.2	19
289.2	44
293.2	48
295.2	2
296.2	76
298.2	26
300.2	179
302.2	96
303.2	123
306.2	27
310.2	24
311.2	33
315.2	44
317.2	165
320.2	69
322.2	82
324.2	69
329.2	39
334.2	75
335.2	66
338.2	27
340.2	105
342.2	15
347.2	80
348.2	51
351.2	32
353.2	37
361.2	106
363.2	9
364.2	65
366.2	85
371.2	11
375.2	113
380.2	80
382.2	42
383.2	73
384.2	51
389.2	61
392.2	12
394.2	55
397.2	58
400.2	128
403.2	79
405.2	13
407.2	53
412.2	49
414.2	103
418.2	135
420.2	51
424.2	99
431.2	77
432.2	43
434.2	81
438.2	45
442.2	51
443.2	7
444.2	131
449.2	113
452.2	41
456.2	39
459.2	4
463.2	48
466.2	39
474.2	7
477.2	146
482.2	24
483.2	25
484.2	103
485.2	36
489.2	59
495.2	40
497.2	113
499.2	50
500.2	67
503.2	24
506.2	33
508.2	31
509.2	52
510.2	27
514.2	6
517.2	100
520.2	2
522.2	15
523.2	49
527.2	63
532.2	90
535.2	2
537.2	28
539.2	13
545.2	46
546.2	18
547.2	5
549.2	210
60.15	1249
61.1	2582
62.1	408
63.1	38
64.1	56
65.1	68
65.7	512
66.7	2788
67.7	144
68.7	239
70.15	1247
71.15	398
72.15	11845
73.15	108176
74.05	19049
75.05	25137
76.05	3291
77.2	709
78.75	654
79.75	1534
80.7	5111
81.65	729
82.7	106
83.7	221
85.15	586
86.15	1467
87.1	4777
88.05	805
89.1	383
90.1	17
91.1	466
92.1	22
96.1	60
97.1	184
98.1	438
99	427
100.05	2212
101	2710
102.05	1778
102.95	1458
104	390
105	92
107	309
111	232
112	338
113.15	743
114.15	3897
115.05	2689
116.15	10292
117.1	57998
118.05	9420
119.05	2200
120.1	457
121.1	100
123.1	131
125.1	85
127.1	186
128.15	951
129.15	7929
130.1	44963
131.05	17367
132.05	11838
133.05	4453
134.05	690
134.95	555
135.9	4
139.1	90
140.1	53
140.9	140
143.1	159
144.05	708
145.05	1125
146.05	14940
147	20472
147.95	5651
148.95	1832
150	274
151	18
153	23
155	86
156	115
157.15	582
157.95	3920
158.85	966
160.1	300
162.9	203
166.1	43
167.9	7
169.1	27
170.1	192
171.9	28
173.1	186
174.1	232
174.9	4
176.1	570
176.9	6
177.9	299
179.9	24
180.9	37
183.9	19
184.9	36
186.1	64
187.1	26
187.9	60
190.1	216
190.9	135
192.1	159
192.9	202
195.1	58
195.9	34
196.9	10
197.9	6
200.9	95
201.9	514
203.1	224
204.3	964
205	395
206.3	40
207	468
209	47
210.3	77
212	18
214.3	73
216.3	53
217	30
218.15	2068
219.05	15186
220.05	4953
221.05	1954
222.1	282
223.1	15
224.1	68
226.1	24
230.1	396
231.1	311
232.1	30
233.1	122
234.1	37
236.1	130
241.1	16
243.1	104
245.1	60
247.95	1577
248.9	148
250	104
251.9	16
254.9	36
255.9	16
258	35
260	5
264	78
266.9	65
269	6
271.9	37
273.9	39
274.9	28
276	62
276.9	55
280.9	128
286.9	31
290	127
290.9	67
291.9	32
300.9	33
303	8
308	27
308.9	21
310	2
311.9	10
313.9	28
314.9	6
316.9	141
318	7
320.9	15
327.9	107
329.9	13
330.9	100
332.9	118
341.9	77
347	80
349	21
353.9	1
355.9	20
358	6
358.9	91
361.9	13
364.9	27
368	19
373.9	87
376	53
378	15
379.9	39
384	58
389.9	159
393.9	47
394.9	44
398.9	5
404	28
405	14
408	27
411	75
413.9	30
414.9	9
416	58
418	101
420	62
420.9	18
425	1
426.9	35
430	67
433	43
434.9	47
437	23
440.9	63
445	60
445.9	57
447	7
450.9	59
452.9	64
455.9	100
457	47
458.9	2
466.9	46
471.9	67
473	1
476	46
477.9	18
481.9	40
483	10
487.9	107
489	121
491	1
494.9	107
496	16
496.9	85
503	19
504.9	96
509	52
511.9	11
513	82
516	84
517.9	24
520.9	55
521.9	96
530	30
532	39
534	46
537.9	103
542.9	8
547	58
549.9	143
60.15	4460
61.05	6738
62.1	332
63.1	344
65.35	833
66.25	6237
67.15	1251
68.2	173
69.25	1159
70.15	3697
71.25	2045
72.25	43897
73.15	317493
74.15	33957
75.1	28600
76.05	3507
77.05	654
78.05	526
79.75	1523
80.8	488
81.8	113
82.8	342
84.15	991
85.15	1301
86.15	9560
86.7	5011
87.65	6454
88.65	1498
89.7	229
92	371
93.05	1093
94	6336
94.95	1602
97	57
98.25	1260
99.25	3489
100.15	20888
101.15	7558
102.15	8031
103.1	14193
104.05	1495
105.05	1579
106	145
107	50
108	13
110	198
112	627
113.15	812
114.15	5215
115.15	63608
116.15	705143
117.05	109701
118.05	25225
119.05	4189
120.1	133
121.1	270
124.1	6
126.1	80
127.15	829
128.15	7325
129.05	1459
130.15	3872
131.1	9237
132.15	4670
133.15	13933
134.05	3332
135.05	730
136.1	52
138.1	50
142.1	154
142.9	257
144.05	1428
145.15	35
146.15	12759
147.1	102556
148.05	19435
149.05	5728
150.05	778
151.1	172
152.1	16
153.1	31
155.1	113
157.1	66
158.1	266
159.1	55
160.1	399
161.1	84
162.1	159
163.1	220
164.1	26
168.1	25
169.1	37
171.1	2
172.1	275
173.1	432
174	1224
175.05	940
176	448
178	73
184	91
186	25
188.2	365
189.25	3450
190.2	25722
191.15	6169
192.15	1791
193.2	270
194.2	63
202.2	102
203.2	13
204.2	108
206.2	32
208.2	97
209.2	27
211.2	68
213.2	127
214.2	46
215.2	83
216.2	285
217.25	1271
218.15	9861
219.15	1262
220.3	715
225.2	72
227.2	75
228.3	42
231.2	58
232.2	168
233.3	537
234.2	156
236.3	72
238.3	162
240.3	131
242.2	40
243.2	8
245.3	81
249.3	3
252.2	19
255.2	18
257.3	14
262.2	160
263.3	5
264.3	33
266.3	1
267.3	67
271.3	9
274.2	52
276.2	37
283.3	11
284.3	87
289.3	104
291.2	3
295.2	34
296.2	22
297.2	18
301.3	117
304.3	2
307.3	36
311.2	13
314.2	29
315.2	99
317.2	105
319.2	1
320.3	15
327.2	1
329.3	72
330.3	139
331.3	24
333.2	64
334.3	95
336.3	129
339.3	55
342.3	35
343.2	31
344.3	3
345.2	25
346.3	10
349.2	79
353.3	1
355.3	19
358.3	74
362.3	60
367.3	25
368.3	50
373.3	182
376.2	19
378.3	124
384.3	45
388.2	111
394.2	25
396.3	78
399.2	49
400.3	61
401.2	37
402.3	13
404.2	52
410.2	62
414.2	38
418.2	18
419.3	62
427.3	66
429.3	4
431.3	9
433.2	147
437.2	34
441.3	14
445.3	61
447.3	127
449.3	40
450.2	37
452.3	80
453.2	22
455.2	107
456.2	5
457.3	49
459.3	141
462.2	48
463.3	16
470.2	52
473.3	133
475.3	82
480.3	89
482.2	33
483.3	43
487.3	18
489.2	13
492.3	84
496.2	69
497.2	22
501.2	49
504.2	1
507.2	54
508.2	104
511.2	64
512.3	76
513.2	30
514.2	27
517.3	9
520.2	20
523.3	84
526.3	61
528.2	14
532.3	146
534.3	129
535.3	5
538.2	43
539.3	5
540.2	21
542.3	11
546.3	79
549.2	26
60.15	2178
61.1	3102
62.1	380
64.1	117
66.15	1160
67.1	131
68.1	386
69.05	1042
70.15	1843
71.15	2277
72.15	43883
73.15	358420
74.05	48427
75.05	36114
75.95	6057
77.05	1086
79.1	239
81.1	36
82.1	571
83.1	590
84.1	226
85.1	1282
86.1	143
87.25	1047
88.2	493
89.2	395
90.2	263
91.2	116
97.2	597
98.15	726
99.05	1735
100.15	2163
101.1	20980
102.05	2966
102.9	3126
104	302
105	1108
106	333
108	184
110	62
111	101
112	7
113	655
114.05	623
115.05	3709
116.05	7021
117.05	19039
117.95	3152
119.1	3870
120.05	544
121.1	54
123.1	53
124.1	227
127.1	283
128.05	1067
129.05	4953
130.05	2621
131.05	16486
132.05	9892
133	51914
133.95	8583
134.95	4175
135.95	699
137	110
138	116
141	140
142.15	1215
143.1	8657
144.05	1006
145.15	1296
146.15	31873
147.05	200761
148.05	34683
149.05	21526
149.95	3522
151	2693
152	392
153	495
154	317
155	230
156	214
157	789
158	99
159	383
160	468
161	438
162	629
163.5	867
164.5	212
166.5	73
167.5	10
170.15	1472
171.1	9403
172.05	1780
173.05	1456
174.15	3613
175.1	22373
176.05	5079
176.85	5339
177.75	2115
178.75	775
179.8	70
184.8	334
185.8	168
188.35	7348
189.3	28303
190.25	19983
191.25	15293
192.25	3450
193.25	740
195.3	35
196.3	37
197.3	105
198.3	192
199.3	93
200.3	10
201.3	309
202.25	945
203.2	3045
204.15	913
205.05	1359
205.9	185
206.85	904
207.9	224
208.9	125
210.9	12
211.9	40
212.9	33
214.9	466
216.05	1930
217.05	12339
217.95	3088
218.95	1267
220.15	965
221.1	5393
222.05	1851
223.1	431
225.1	150
229.1	496
230.1	24
231.15	35
232.15	9764
233.1	60116
234.05	12344
235.05	4596
236.05	694
237.1	585
239.1	51
241.1	17
244.05	3648
245	28328
245.95	6499
246.95	4790
247.95	480
250	79
252	10
254	87
258.7	116
259.7	2023
260.7	308
262.15	1923
263.15	11903
264	4247
265.05	13586
265.95	5402
266.95	955
268	552
269	19
271	2
275	10
276	60
278	111
284	155
289	14
290	9
291	776
293	190
295	49
296	134
297	12
300	14
304.95	2630
305.95	3881
306.95	13121
307.85	5344
308.85	1456
309.9	565
310.9	40
311.9	35
312.9	83
314.9	93
315.9	41
318	203
319.05	4158
319.95	1036
321	333
322	272
327	159
328	19
329	28
330	82
334.15	1533
335.1	8643
336.05	1397
337.05	994
338.1	47
340.1	179
342.1	78
347.1	86
350.1	185
351.1	305
352.1	137
353.1	29
355.1	29
357.1	6
361.1	183
366.1	32
368.1	53
369.1	24
375.1	43
379.1	118
388.1	27
391.1	27
392.1	28
398.1	163
400.1	46
406.1	57
417.1	50
420.1	56
422.1	74
423.1	138
426.1	46
427.1	122
431.1	145
433.1	35
437.1	56
441.1	97
442.1	85
444.1	14
448.1	55
452.1	43
455.1	104
457.1	82
458.1	19
461.1	58
466.1	18
467.1	46
471.1	29
473.1	100
475.1	206
477.1	36
479.1	2
481.1	209
488.1	87
490.1	113
493.1	59
494.1	6
499.1	128
504.1	79
508.1	13
510.1	13
512.1	129
516.1	98
518.1	31
522.1	96
523.1	8
525.1	89
527.1	1
529.1	93
535.1	65
543.1	27
545.1	77
547.1	2
549.1	10
550.1	25
60.15	1180
61.1	2909
62.1	289
63.1	5
65.25	904
66.25	10280
67.15	1976
69.2	108
70.15	994
71.25	1154
72.25	15178
73.2	101882
74.15	12331
75.15	13444
76.05	1516
77.1	304
78.1	192
79.4	316
80.4	131
81.4	98
83.4	140
84.4	24
85.4	179
86.1	466
87.15	2659
88.05	3518
89.05	1171
90.1	195
92.1	37
93.1	139
94.1	128
95.1	124
96.1	20
98.1	44
99.1	212
100.55	707
101.5	2414
102.55	1690
103.45	1024
104.5	254
105.5	374
108.5	39
111.5	12
113.5	62
114.1	97
115.15	1555
116.15	9145
117.1	91537
118.05	11737
119.05	4033
120.05	720
124.1	31
125.1	32
126.1	94
127.1	48
129	1025
130.05	894
131.05	4993
132.15	1813
133.05	8807
134.05	1486
135.1	362
138.1	66
141.1	126
143.1	201
144.1	11
146.15	7965
147.15	77828
148.05	15868
149.05	6164
150.05	1096
151.1	67
152.1	41
159.1	91
161.1	66
163.1	346
165.1	217
171.1	79
175.1	302
176.1	140
177.1	251
181.1	41
185.1	92
187.1	6
189.05	760
190.05	7199
191	13165
191.95	4197
192.95	691
194	627
196	20
198	17
199	115
201	29
202	160
203.15	1217
204.1	220
206.1	275
208.1	92
210.1	97
212.1	88
214.1	9
216.1	74
218.35	1109
219.25	4481
220.25	846
221.05	899
222	91
226	44
235	73
238	93
241	6
243	75
245	103
255	52
257	26
259	186
263	9
265	28
267	137
269	77
270	64
273	85
278	53
279	18
282	24
283	143
284	131
286	36
287	136
289	22
295	33
296	31
300	74
301	17
303	197
305	69
306	25
308	118
310	58
313	11
314	1
319	36
322	60
324	64
325	69
326	78
332	9
334	59
337	28
339	71
341	1
342	20
345	120
347	132
348	32
349	23
351	45
357	208
359	11
360	109
362	1
364	133
367	57
372	78
374	125
375	87
381	31
382	34
383	36
384	37
385	65
386	42
387	45
388	78
390	34
394	81
399	43
401	77
404	54
406	15
409	113
414	21
417	1
419	78
421	148
422	44
425	9
429	49
433	20
434	8
436	60
437	50
441	69
443	116
445	44
447	108
452	65
456	109
457	25
463	50
464	56
469	34
470	54
472	23
475	9
477	15
481	120
485	1
489	103
492	3
493	8
495	198
497	63
503	88
507	99
508	16
510	46
511	107
513	62
517	132
523	48
527	67
528	91
529	10
530	27
533	36
536	203
538	24
540	13
543	106
549	67
60.15	1912
61.05	3920
62.1	3
63.1	37
64.1	22
65.25	1434
66.2	12027
67.15	2441
68.25	1488
69.15	4032
70.15	2025
71.15	2296
72.15	20372
73.15	138846
74.05	22716
75.1	47383
76.05	5205
77.1	1734
78.1	172
79.15	150
81.1	386
82.1	197
83.9	201
84.85	1379
86.2	338
87.25	4432
88.2	16477
89.15	3168
91.2	136
93.2	58
96.2	169
97.2	312
98	395
99	2381
100.15	715
101.1	6802
102.05	1149
103	2521
103.8	436
104.8	1072
105.8	87
106.8	70
108.8	765
109.8	323
110.8	130
111.8	78
112.8	212
114.15	2429
115.05	12263
116.15	13623
117.1	114891
118.05	15484
119.05	5029
120.05	887
122.1	5
123.1	5
125.1	15
128.2	268
129.25	5670
130.15	23297
131.15	12926
132.05	4992
133.05	19526
133.95	4655
134.95	1425
136	26
137	197
142	473
143.05	3501
143.95	953
146.15	29651
147.1	198787
148.05	36828
149.05	18461
150.05	2023
151.1	407
153.1	147
155.1	51
157.1	170
158.1	436
159.1	293
160.1	162
161.1	28
162.1	399
163.1	464
164.1	303
167.1	74
172.1	82
173.1	176
174.1	70
175.1	356
176.1	70
177.1	1
184.1	16
188.15	874
189.1	6814
190.15	5880
191.1	53501
192.05	8941
193.05	4091
194.1	258
195.1	230
203.1	163
204.15	3757
205.05	1400
206.1	547
207.1	16
208.1	38
209.1	142
212.1	35
215.1	48
216	89
216.95	1081
218	355
220	49
231	135
232.15	2147
233.05	22109
234.05	4458
234.95	3489
235.9	393
239.9	87
240.9	29
241.9	34
244.9	86
246.9	330
248.9	466
249.9	80
251.9	57
253.9	13
255.9	28
257.9	26
261.9	117
264.9	146
269.9	14
272.9	25
284.9	49
289.9	4
295.9	16
296.9	61
299.9	82
301.9	23
311.9	6
312.9	52
317.9	14
319.9	13
320.9	53
321.9	1
324.9	71
326.9	76
329.9	10
331.9	13
332.9	22
333.9	27
335.9	3
337.9	82
339.9	81
341.9	65
344.9	18
346.9	52
351.9	64
354.9	113
355.9	25
356.9	87
358.9	34
359.9	103
364.9	34
366.9	133
372.9	101
375.9	91
376.9	4
380.9	36
381.9	28
382.9	43
388.9	125
389.9	12
392.9	28
393.9	10
395.9	48
397.9	56
398.9	146
402.9	47
404.9	43
405.9	10
407.9	37
409.9	31
411.9	44
413.9	6
416.9	38
420.9	4
421.9	14
424.9	75
429.9	130
430.9	114
432.9	24
433.9	75
436.9	17
439.9	12
440.9	3
442.9	42
445.9	108
449.9	90
452.9	4
453.9	6
455.9	9
456.9	6
460.9	33
463.9	22
464.9	4
466.9	9
469.9	32
472.9	94
473.9	35
475.9	22
476.9	10
478.9	84
480.9	90
491.9	13
497.9	47
499.9	66
500.9	16
504.9	46
507.9	22
510.9	17
511.9	25
513.9	44
515.9	14
517.9	42
524.9	106
529.9	12
532.9	187
535.9	100
538.9	123
539.9	6
541.9	30
543.9	2
545.9	33
60.15	982
61	1785
62	80
63	143
65.35	1870
66.25	10560
67.15	1307
68.3	162
69.3	1338
70.2	485
71.25	1489
72.25	12881
73.15	55651
74.15	7192
75.1	17299
76.05	2188
77.05	933
78.15	953
79.1	2301
80.05	597
82.1	123
83.1	10
84	289
85	170
86	409
86.9	923
88.1	943
89.1	519
90	102
91.1	94
92	216
93	39
95.1	205
96.1	41
98	133
99	2381
100	301
101.1	878
102.1	119
103.1	744
104.1	124
105.1	630
106	101
107.1	170
109.1	1400
110.1	91
111.2	115
112.2	26
113.2	50
114.95	1546
115.95	831
116.9	2006
117.9	181
118.9	496
119.9	215
121.9	139
123.9	8
124.9	11
128.9	187
130.1	175
131.05	3397
132.05	1402
133	5592
133.95	1104
135	691
136	5
137	42
141	84
142	42
143.05	1231
144	46
146.15	15697
147.05	103824
148.05	18718
149.05	9347
150.05	1337
151.1	16
152.1	32
157.1	6
158.1	35
159.1	28
160.1	1
161.1	69
162.1	297
163.1	260
165.1	136
173.1	477
176.1	90
178.1	160
180.1	34
181.1	96
182.1	42
184.1	15
185.1	4
187.1	66
188.1	251
189.1	355
190.1	108
191.1	129
192.1	67
195.1	34
196.1	53
198.1	23
200.1	3
201.1	119
204.1	179
205.1	67
206.1	2
207.1	250
211.1	301
217.1	214
218.1	161
219.1	36
220.1	51
221.1	19
222.1	36
223.1	9
230.1	28
232.05	664
233.05	5934
233.95	1724
234.95	689
236	135
238	49
240	52
242	101
244	19
248	770
249	36
254	30
255	16
257	27
259	93
273	135
274	31
278	31
279	6
280	81
284	49
286	53
288	13
289	27
291	89
294	114
295	7
297	24
299	86
302	79
305	76
308	62
312	81
313	24
314	16
315	101
318	5
320	83
322	41
328	29
329	10
339	58
342	21
344	45
346	37
348	171
349	37
350	21
352	133
356	19
357	115
359	9
361	4
363	27
367	14
369	60
372	24
377	42
379	51
381	52
386	9
395	5
397	30
404	103
407	24
409	50
413	13
414	25
415	51
417	120
418	126
423	41
427	14
430	16
436	120
437	22
439	45
441	33
443	16
446	12
448	22
450	102
455	52
458	7
459	81
461	20
463	119
468	4
470	78
472	19
477	36
479	168
480	21
482	55
483	54
484	38
488	19
491	15
492	19
494	14
497	86
498	18
500	86
502	33
505	102
509	39
511	105
513	53
514	103
516	37
522	75
525	7
530	91
536	5
537	25
538	55
541	5
542	32
544	84
546	41
547	25
60.15	2347
61.1	6577
62.05	695
63.1	68
64.1	63
66.1	1364
67.1	315
68.1	74
69.2	277
70.25	1689
71.25	2188
72.25	30004
73.15	162301
74.15	22739
75.1	66721
76.05	7233
77.1	2322
79	447
80	43
81	60
82	526
83	154
84.25	847
85.05	2421
86.15	3393
86.95	1062
88.25	1271
89.1	1672
90.1	19
91.1	99
92.1	105
97.1	77
98.1	165
99.1	1489
100	422
101	1813
102	350
103	1726
104	333
105	508
107	193
108	116
111	215
112.1	221
113.1	2583
114.15	1069
115.15	2902
116.05	6456
117.05	4629
117.95	665
118.9	1293
119.9	182
120.9	114
122.9	104
125.9	75
126.9	204
128.05	3518
129	23509
129.95	5222
130.95	7913
132.05	2189
133	13322
133.95	2487
134.95	1290
136	47
137	68
139	2
140	84
143.2	1762
144.1	452
145.15	433
146.15	37617
147.1	339668
148.05	56994
149.05	23573
150.05	3266
151.05	505
153.1	191
155.3	356
156.25	958
156.9	820
157.9	272
158.9	99
162.15	652
163.1	1561
164.1	306
166.1	1
167.1	160
168.1	46
171.15	2250
172.1	15642
173.05	7879
174.55	2443
175	1237
176.5	204
177.5	342
178	71
181.5	6
184.5	93
188.5	90
189.5	19
190	250
191.5	232
192	39
193	79
196.5	8
198	47
202	27
203	1097
204	40
205	59
207	229
208	14
209	7
210	264
213	73
216	48
217.15	933
218.1	3126
219.45	722
220.1	275
225.4	121
230.1	275
231.1	211
232.1	44
237.4	27
238.4	18
239.4	14
240.1	198
241.1	144
243.1	79
246.15	4925
247.05	35705
247.95	7809
249.05	2758
249.95	284
251	98
252	55
256	40
258.1	4
261.1	299
262.05	948
263	239
264	19
266	185
273.3	17
275	99
282	13
287.3	23
288	27
290.3	6
292.3	26
294.3	4
296.3	9
297	29
304.3	2
306	91
308.3	12
311	74
312.3	17
314	17
316	16
318.3	11
323	5
325.3	22
326	2
327.3	50
328	23
331.3	96
334.3	62
337	30
339.3	28
343.3	47
344.3	6
346	161
348.3	11
351	70
353.3	26
354.3	1
355.3	86
359	35
364.3	10
367.3	37
370.3	4
372	49
377.3	65
378.3	12
381	54
384	40
386	31
388	31
390.3	1
393	18
395	10
398.3	18
402	78
409.3	21
410	49
411	42
416	53
419	21
420.3	94
424	52
428.3	51
430	39
431.3	55
437.3	19
438	2
440	58
443.3	54
450	34
451.3	45
454	54
455.3	6
456.3	8
457.3	37
459.3	16
461.3	108
462.3	16
465	24
466	43
468.3	13
471	94
472.3	17
475.3	28
476	10
477	18
481.3	61
482	2
483	13
486.3	4
487	15
488	9
490.3	138
492.3	62
494.3	21
496.3	3
498	93
499.3	3
500	24
504.3	38
507	2
510	20
514.3	152
517.3	72
521	124
527	10
531.3	121
536	57
537	29
547.3	100
60.15	2558
61.1	6991
62.05	736
63.1	57
64.1	91
65.15	778
66.15	1807
67.15	978
68.15	2822
69.1	5370
70.05	1335
71.25	1751
72.25	17506
73.15	119411
74.05	20283
75.1	44913
76.05	5102
77	1854
78.05	389
79.25	227
80.2	266
81.15	921
82.15	3948
83.1	17656
84.05	9001
85.05	3928
86.05	878
87	830
88.1	72
89.1	1204
90.1	208
91.1	180
93.1	213
94.1	92
95.1	126
96.1	77
97.3	1664
98.25	2851
99.25	2223
100.3	76
101.3	182
101.85	693
102.8	1373
103.85	668
105	717
107	46
108	45
109.8	10
111	518
112	361
113	2724
114.05	1273
115.05	14436
115.95	2675
117.1	3790
118.05	1123
119.15	1040
120.2	137
121.1	19
123.2	33
125.25	662
126.15	4277
127.2	5451
128.05	2412
129.05	1747
130.05	406
131.05	4386
132.05	4726
133	20534
133.95	3337
135.05	2150
136.1	87
137	80
138.1	99
139.1	104
141.05	687
142.05	2987
143.05	33407
143.95	6360
145.15	1450
146.15	13432
147.1	102764
148.05	21298
149	13160
149.95	1863
151.1	1013
152	79
153	9
154.15	1428
155.05	8845
156	2193
157	7024
157.95	1122
158.95	1138
159.9	305
160.9	153
161.9	360
162.9	38
164	10
169.2	336
170.2	2255
171.15	1747
172.1	408
173.1	1136
174.1	237
175.1	140
178.1	109
179.1	3
181.1	71
182.1	101
184.1	14
185.1	59
186.1	146
187.1	102
188.1	24
189.1	106
192.1	113
194.1	123
197.1	24
198.1	88
199.1	89
200.1	60
201.15	1220
202.2	255
203.1	46
206.2	102
207.2	275
214.1	102
215.05	795
216.15	1048
217	10236
218.05	2341
218.95	726
220.1	450
221.1	7
225.1	4
227	49
229	157
230.1	79
231	90
233.1	63
235	54
237	149
239	1
242.2	1155
244.05	19978
245.05	161644
245.95	43991
246.95	13673
247.95	2273
249	304
253	39
254	128
259	51
261	185
263	51
264	108
265	39
271	31
273	39
274	34
277	29
278	46
280	45
281	42
282	23
285	39
287	21
290	11
291	32
293	67
295	123
297	49
298	100
300	47
302	2
304	156
306	40
308	11
312	141
315	17
316	6
319	114
321	39
322	56
323	10
327	18
333	65
344	60
347	43
349	9
353	63
355	116
358	4
360	39
362	40
363	6
366	3
367	119
373	11
379	55
381	23
383	68
385	23
388	27
393	39
395	5
398	8
399	40
404	28
405	33
406	68
407	3
410	13
413	57
417	142
420	63
422	86
424	120
427	66
428	46
430	28
436	138
438	21
439	47
442	194
444	129
447	20
452	115
459	1
463	21
464	74
466	35
468	19
469	81
471	169
477	95
482	56
483	85
484	26
485	46
487	84
492	43
495	3
500	150
502	131
505	45
509	6
511	33
513	79
516	18
517	24
518	80
521	34
523	2
524	38
525	82
526	60
530	9
533	1
535	135
543	9
544	10
545	85
547	130
549	10
60.15	2229
61.1	3750
62.1	226
63.1	159
66.1	317
67.6	1013
69.2	611
70.25	1999
71.25	1116
72.25	32394
73.15	192064
74.15	29023
75.05	53667
76.05	5169
77.15	1275
79.1	275
80.1	343
81.1	171
82.1	3971
83.1	1037
84.1	5176
85.05	919
86.1	1094
87.1	327
88.15	2550
89.1	16145
90.05	1416
91.1	1036
92.1	17
93.1	111
95.1	110
96.1	159
97.1	287
98.3	980
99.85	1295
100.8	378
101.8	703
102.8	505
103.8	256
105.3	948
106.3	65
108.3	155
109.3	338
110.1	624
111.15	1499
112.05	9764
113.05	1550
114.95	2478
115.85	565
117	1068
118	54
119	817
120	59
121	9
123	242
124	127
125.15	1801
126.1	10181
127.05	1916
127.8	1645
128.8	2559
130.05	1311
131.05	2677
132.05	1476
133.05	5841
133.95	1289
134.9	1244
135.9	147
137.9	553
139.9	455
140.9	236
141.9	638
143.15	595
144.15	2172
145.05	925
146.15	9569
147.1	52029
148.05	10708
149.05	6974
150.05	571
151.1	5
152.1	183
153.05	965
154	5339
155.05	2875
156.05	22243
156.95	4229
158.05	1756
159.2	669
160.2	65
162	277
163.05	1623
164	154
165	191
166	278
167	79
169.15	1694
170.1	10590
171.05	2324
171.95	3327
172.85	1557
174	1045
176	58
178	82
181	80
182.05	778
182.95	936
184.05	1446
185.05	943
186	6700
186.95	1095
188	538
189	249
190	351
191	215
193	172
195	19
197.15	3262
198.05	23548
199.05	4087
200.05	2011
201.15	3129
202.15	5541
203.05	1410
204.1	122
205.1	136
206.1	138
207.1	411
208.1	244
211.1	75
212.1	109
213.1	29
214.1	449
215.1	232
216.1	342
217.1	152
218.1	22
220.1	14
222.1	152
223.1	25
225.1	48
226.1	82
227.1	65
228.05	1043
229	6032
229.95	1227
231	485
235	42
238	6
239	40
240	50
241	81
242	247
243	246
243.95	5378
244.95	1023
246	360
247	330
248	91
255	13
259	63
260	5
264	102
267	61
269	155
272	971
273	392
274	311
276	125
280	89
282	32
284	108
286	30
287.05	1138
288.05	10244
288.95	2689
289.95	1215
291	310
303	401
304	4644
304.95	2364
305.95	921
307	24
308	17
309	4
313	26
318	77
319	629
320	129
324	1
325	84
328	95
331	45
333	14
334	23
340	46
342	2
344	100
345	88
347	40
351	53
352	155
354	73
356	16
358	4
362	73
365	66
369	37
372	65
373	58
375	2
377	6
382	77
385	78
388	47
390	87
392	29
401	264
402	27
404	5
405	117
406	80
408	40
410	8
414	41
416	33
420	56
421	17
424	37
427	121
428	41
432	13
440	110
443	82
444	4
446	56
448	232
449	119
452	79
454	9
455	5
459	29
463	17
465	13
466	126
474	81
476	24
479	28
482	36
483	28
484	137
487	102
488	95
489	32
490	129
499	4
500	13
502	25
503	78
504	53
509	117
511	107
517	81
519	26
524	42
526	6
527	96
538	160
547	54
548	134
550	90
60	520
61.05	1611
62	327
65	149
66.15	2813
67.1	21265
68.05	2430
69.15	5476
70.05	1586
71.15	1660
72.15	44774
73.15	305630
74.05	45262
75.05	40313
76.05	3596
76.95	1866
77.9	328
78.9	493
80.9	451
81.9	264
83.3	920
84.1	561
85.1	950
86.1	213
87	540
88	975
89.05	781
90	184
91	130
92	213
94	161
95.2	1019
96.15	643
97.05	2243
98.05	590
99	3829
99.95	774
101.2	1558
102	424
103	2613
103.95	805
105	576
108	142
109	131
110	345
110.95	4405
111.95	900
113.1	1724
114.15	1219
115.1	13849
116.05	6047
116.8	6652
117.75	1731
118.95	1539
119.9	384
120.9	215
121.9	346
125.9	108
127.15	1122
128.15	3653
129.1	28836
130.05	6502
131.05	15517
132.05	6671
133.05	28240
133.95	5121
134.95	3216
136	411
137	73
138	151
139	3190
140.15	872
141.05	3196
142.15	2458
143.05	10078
144.05	2408
145.15	391
146.15	29816
147.1	202180
148.05	37574
148.95	29986
149.85	7727
150.85	2062
151.85	735
153.9	14
155.1	1492
156.15	988
157.05	5049
158.05	927
159.05	1011
160.1	322
161.05	1430
162.15	1225
163.1	4240
164.05	641
165.1	274
167.1	3
168	433
169.05	2195
170.05	892
171	3378
171.95	830
172.8	2240
173.8	461
174.8	929
176.5	1281
177.5	401
182.05	4089
183.05	29613
183.95	6330
184.95	8537
185.95	1304
187.05	763
189.1	4137
190.15	3593
191.1	3066
192.1	357
193.15	1084
195.1	130
197.1	179
198.1	83
199.1	135
200.1	292
201.1	1677
202.1	311
203	252
204.05	2245
205.05	2232
206.05	1068
207	4591
207.95	1003
209	257
210.05	3717
211.05	36081
211.95	6659
212.95	6151
214	1805
215	4914
216.05	2050
217.05	12360
217.95	2867
218.95	1029
220.15	3510
221.05	20580
222.05	3935
223.05	2001
224.1	355
226.1	18
227.1	236
228.15	779
229.1	6358
230	1792
231.05	12004
231.95	2924
232.95	1457
235	108
236	26
237	44
238	29
239	1
240	64
241	587
242	139
242.9	553
243.95	1678
244.9	1838
245.9	415
246.9	228
248.9	67
250.9	53
253.9	166
254.9	21
256.15	3983
257.05	28843
258.05	5902
258.95	6484
259.95	1032
261	660
264	187
267	2
269	331
270	264
272.05	26061
273	197802
273.95	55422
274.95	17569
275.95	4007
277	423
278	86
279	150
280	301
282	26
283.95	711
284.95	6777
285.85	2564
287.1	2000
287.9	111
288.9	1005
289.9	77
290.9	514
291.9	19
292.9	146
293.9	165
295.9	15
300.15	828
301.05	4420
302.15	2181
303.1	5754
304.15	3338
305.1	12261
306.05	3522
307.05	3024
308.1	284
309.1	105
311.1	63
313.1	102
316.1	313
317.1	55
318.35	1579
319.25	2664
320.25	1063
321.3	375
330	440
331	2052
331.9	375
332.9	2474
333.85	1137
334.9	415
336.9	157
339.9	21
341.9	17
343.9	23
345.1	139
346.15	5954
347.15	37115
348.05	12299
349.05	5971
350.05	704
351.1	280
353.1	18
355.1	16
356.1	113
362.05	2554
363	27838
363.95	9515
364.95	3508
365.95	1295
368	140
371	57
373.1	131
374.15	6115
375.15	31389
376.05	9914
377.05	4236
378.05	1938
379.1	324
380.1	192
389.1	179
390.1	120
392.1	258
394.1	119
396.1	17
397.1	126
401.1	6
403.1	9
404.1	146
406.1	78
408.1	219
415.1	98
416.1	14
418.1	70
420.55	975
421.5	1011
422.5	217
423.5	174
434.5	90
435.5	51
436.9	1152
437.9	133
438.9	144
439.9	133
440.9	93
445.9	22
446.9	12
448.9	59
450.9	118
451.9	25
452.9	26
454.9	5
455.9	14
457.9	10
459.9	134
460.9	54
461.9	27
464.45	6500
465.4	12037
466.35	4312
467.35	1892
468.4	50
469.4	136
470.4	84
472.4	36
473.4	141
476.4	19
482.4	71
483.4	54
490.4	23
494.4	52
496.4	157
500.4	14
502.4	17
506.4	7
508.4	85
510.4	2
514.4	118
517.4	90
520.4	174
525.4	27
527.4	95
528.4	66
531.4	44
535.4	185
537.4	34
540.4	106
541.4	38
549.4	11
60	249
61.1	1058
64.1	122
66.1	576
67.1	89
68.1	234
69.1	22
70.1	326
71.15	296
72.15	10712
73.15	78510
74.05	10534
75.05	7254
76.05	509
77.1	7
80.1	119
83.1	3
84.1	497
85.1	187
86.1	289
87.1	338
88.1	93
89.1	676
90.1	115
91.1	251
93.1	171
94.1	2
96.1	29
97.1	105
98.1	202
99.1	447
100.15	1645
101.05	11388
102.05	1193
103	1279
104	154
105	549
106	48
109	69
110	97
113	236
114.1	114
115.15	2132
116.15	5279
117.05	1919
117.8	235
118.8	1610
119.8	38
120.8	434
121.8	171
122.8	113
123.8	279
124.8	15
125.8	8
126.8	115
127.8	29
128.8	984
130	46
131	3356
132.05	2555
132.95	10225
133.95	2659
135	2422
136	153
137	643
140	181
141	12
142	244
143.05	4625
143.95	827
144.95	583
146.05	3346
147.05	31332
147.95	6601
148.95	2236
150.15	730
151.2	1188
155.2	188
159.2	247
160.2	156
161.2	212
162.2	183
163.2	407
165.2	538
167.2	230
170.2	199
172.2	45
174.2	218
176.2	76
177.2	183
178.2	352
179.2	152
179.9	79
180.95	1014
181.85	694
183	876
184	268
186	181
188.1	545
189.1	3213
190	654
191	2197
191.95	1109
192.95	1490
194.3	408
195.25	1715
196.3	466
197.3	246
198.3	128
201.3	92
203.3	146
204.3	252
205.3	227
206.05	857
207	3948
207.95	956
209.05	988
210.05	1665
211	14957
211.95	2463
212.95	1165
215	55
216.15	1443
217.1	11300
218.05	2806
219.1	399
220.1	229
221.1	338
223.1	130
224.15	1138
225.1	2886
226.15	3928
227.05	17607
228.05	3597
229.45	941
230.4	287
231.4	470
232.4	135
233.4	40
235.4	104
237.4	45
238.4	108
239.4	158
241.4	234
243	1777
244	413
245	221
247	73
249	144
250	60
251	5
252	101
253	693
254	334
255	586
262	134
264	18
266	109
267	186
268	25
269	627
270	59
271	247
273	123
274	38
279	126
282.95	1340
283.95	1294
284.85	2687
285.85	931
286.9	431
287.9	86
289.9	12
292.9	196
293.9	67
294.9	175
295.9	13
297.95	2714
298.95	30980
299.85	11032
300.85	4297
301.85	943
302.9	210
303.9	73
305.9	31
307.9	210
310.9	179
312.9	444
314.05	1234
315.05	10009
315.95	3480
316.85	2678
317.9	108
319.9	79
320.9	78
322.9	27
325.9	106
326.9	574
328.3	747
329.3	112
330.3	153
336.3	109
339.9	18
340.9	2997
341.85	1536
342.85	807
344.9	159
348.9	40
350.9	7
352.9	42
353.9	151
355	337
356.05	1794
357.05	16503
357.95	6076
358.95	2809
360	142
361	228
366	67
368	126
369	277
370	249
371	641
372	345
373	421
374	430
376	151
378	38
380	27
384	186
386.05	2144
387	9006
387.95	4213
388.95	1888
389.95	943
391	55
392	141
393	29
396	96
398	91
400	5
401	34
405	124
407	92
408	67
409	132
411	194
414	235
415	952
416	404
418	206
425	63
430	137
431	588
432	546
433	158
434	177
439	127
443	72
449	85
451	108
453	80
457	63
458.05	1038
458.95	3941
459.95	1491
460.95	1125
463	65
469	108
470	13
471	21
474	74
477	186
480	49
483	137
486	74
489	48
491	105
493	124
495	123
502	154
503	15
506	1
509	5
510	122
511	86
514	10
516	53
517	58
518	67
520	93
522	94
526	52
532	145
535	37
536	80
538	59
542	82
545	23
546	105
59.9	1063
61	657
62	21
63	62
64	85
65.15	532
66.15	1325
67.15	4369
68.15	2417
69.15	17599
70.05	5474
71.15	1556
72.15	2295
73.15	40525
74.15	245736
75.05	29115
76.05	344
77.15	909
78.15	2050
79.15	7854
80.05	2364
81.25	1122
82.15	2413
83.15	8866
84.15	6659
85.05	1631
86.15	6417
87.15	78372
88.05	10602
89.05	878
93.1	242
94.1	161
95.1	203
96.25	664
97.2	4079
98.15	3189
99.15	391
100.15	1906
101.1	15765
102.05	1826
103.1	467
104.1	8
105.1	196
106.1	68
107.1	228
108.05	673
109.05	1639
110	313
111	339
112	97
114.15	2754
115.05	24067
116.05	2050
117.1	312
118.1	307
119.1	85
120.1	71
123.1	24
125.15	1455
126.15	3331
127.1	33262
128.05	4510
129.1	10359
130.05	1678
131.1	492
133.1	639
135.1	121
137.1	32
143.1	1291
146.05	735
147.05	11149
147.95	1840
149	154
150	153
151	212
153	103
157.1	210
158.05	1327
159.1	236
160.1	182
163.1	47
170.1	31
174.1	43
175.1	326
176.1	113
183.1	63
185.1	71
188.1	4
190.1	643
191.1	60
192.1	17
194.1	59
199.1	44
202.1	64
207.1	91
208.1	140
210.1	59
213.1	45
215.1	35
218.1	30
219.1	82
220.1	8
224.1	51
225.1	93
228.1	14
231.1	86
232.1	112
233.1	77
235.1	25
237.1	24
240.1	8
241.1	9
243.1	41
247.1	25
251.1	12
252.1	169
254.1	70
255.1	98
257.1	36
260.1	62
264.1	4
268.1	28
273.1	84
276.1	17
277.1	99
281.1	41
283.1	13
285.1	49
290.1	8
292.1	7
299.1	83
301.1	6
303.1	72
307.1	41
308.1	117
318.1	1
320.1	32
322.1	3
323.1	59
325.1	100
326.1	17
328.1	136
333.1	79
334.1	59
335.1	102
337.1	105
341.1	62
342.1	112
349.1	107
350.1	84
351.1	29
357.1	48
359.1	33
360.1	55
364.1	88
366.1	65
369.1	176
371.1	18
373.1	35
375.1	65
377.1	115
378.1	25
379.1	58
384.1	12
386.1	10
391.1	81
397.1	80
402.1	38
403.1	4
406.1	81
410.1	55
412.1	119
414.1	91
425.1	53
427.1	94
429.1	49
434.1	116
438.1	111
440.1	30
445.1	90
448.1	123
452.1	10
453.1	122
456.1	74
457.1	10
459.1	102
463.1	21
464.1	6
465.1	48
470.1	100
471.1	156
473.1	15
474.1	106
476.1	69
480.1	44
484.1	75
487.1	26
489.1	84
490.1	94
493.1	1
496.1	14
498.1	140
506.1	3
507.1	9
512.1	64
514.1	108
515.1	33
517.1	57
520.1	48
523.1	17
530.1	46
531.1	32
533.1	5
535.1	71
540.1	9
541.1	80
544.1	28
546.1	34
60.2	1327
61.2	319
63.2	245
64.9	772
66.25	1023
67.25	5780
68.25	6040
69.2	22429
70.15	5286
71.15	9503
72.1	1510
73.15	25756
74.15	221903
75.05	30525
76.05	394
77.35	791
79.2	1037
80.25	864
81.2	3954
82.25	2261
83.2	9371
84.15	6304
85.15	4095
86.15	8787
87.1	82925
88.05	11696
89.05	271
91.1	291
93.1	976
94.1	518
95.1	1911
96.25	878
97.2	6443
98.15	5071
99.15	532
100.05	1518
101.05	13812
101.95	2054
103	183
104	139
105	48
106	79
107	502
108	6
108.9	304
109.9	1115
110.85	1222
111.9	2051
112.9	313
115.05	5783
115.95	1513
117	302
118	125
119	247
120	122
121	96
122	91
123	92
124	4
125.2	844
126.2	343
127.2	120
128.15	952
129.05	12167
130.05	1386
132.1	215
134.1	123
134.95	802
135.9	971
137.2	839
140.2	130
142.15	3672
143.1	32243
144.05	4877
146.1	124
147.1	42
149.1	87
152.1	93
153.1	238
154.25	2740
155.15	17228
156.15	2606
157.05	6531
157.95	1265
159	209
160	12
162	39
163	124
164	108
165	94
168	58
172	11
173	64
175	117
178	27
180	25
182	41
183	127
185.2	305
186.25	2244
187.2	894
188.2	27
189.2	4
190.2	28
191.2	46
194.2	185
196.2	59
199.2	10
201.2	71
204.2	11
206.2	26
208.2	79
209.2	70
211.2	106
215.2	37
217.2	1
219.2	45
220.2	31
222.2	48
225.2	88
229.2	116
232.2	78
238.2	38
239.2	26
242.2	11
244.2	176
252.2	58
264.2	16
265.2	70
267.2	8
274.2	174
281.2	75
285.2	11
292.2	32
293.2	10
295.2	125
298.2	57
302.2	19
313.2	36
316.2	105
318.2	82
320.2	53
321.2	7
323.2	71
324.2	44
326.2	58
332.2	32
333.2	110
336.2	17
339.2	27
346.2	22
347.2	63
349.2	69
350.2	4
357.2	150
360.2	63
362.2	77
368.2	28
369.2	2
370.2	113
371.2	71
373.2	195
377.2	100
379.2	57
382.2	85
383.2	11
386.2	66
387.2	29
388.2	7
392.2	9
399.2	101
400.2	41
402.2	81
403.2	28
404.2	87
406.2	21
407.2	123
411.2	18
412.2	75
413.2	33
418.2	55
420.2	65
422.2	20
425.2	123
427.2	102
428.2	109
429.2	92
430.2	2
432.2	9
433.2	44
434.2	95
438.2	122
439.2	1
442.2	34
444.2	55
445.2	53
447.2	3
448.2	112
449.2	12
450.2	61
452.2	16
454.2	14
456.2	30
458.2	23
462.2	31
465.2	10
466.2	35
467.2	31
470.2	137
473.2	8
480.2	47
481.2	42
484.2	43
485.2	54
487.2	6
490.2	91
492.2	39
493.2	39
496.2	9
499.2	75
503.2	58
505.2	13
509.2	52
511.2	17
513.2	75
516.2	6
518.2	41
521.2	9
524.2	116
526.2	112
527.2	52
529.2	104
531.2	3
535.2	76
536.2	39
540.2	77
541.2	121
542.2	67
545.2	248
547.2	142
549.2	27
60	407
60.95	1112
61.9	81
62.9	102
63.9	46
64.9	519
66.2	313
67.2	3600
68.25	2989
69.15	15063
70.15	3821
71.2	4427
72.25	1719
73.25	27378
74.15	163037
75.15	20510
76.15	561
77.5	602
78.1	202
79.05	1175
80.25	612
81.25	3155
82.25	2898
83.2	7563
84.15	4119
85.15	2299
86.15	6922
87.15	61696
88.05	7368
89.1	148
91.1	206
92.1	92
93.1	720
94.2	479
95.2	2895
96.25	1412
97.2	4454
98.15	3064
99.15	641
100.15	1372
101.05	10375
102.05	1081
103.1	242
104.1	125
105.1	26
107.1	137
108.1	94
108.95	1243
109.9	242
111.05	2437
112	257
113	244
114.2	344
115.15	6510
116.15	1179
117.2	634
119.2	23
120.2	27
121.2	57
122.2	419
123.2	51
124.35	977
125.2	572
126.15	1226
127.2	136
128.15	1776
129.15	9579
130.05	1817
131.1	20
133.1	65
135.1	143
136.1	96
137.1	37
139.1	463
140.1	107
142.15	1658
143.1	15918
144.05	2186
145.1	122
146.1	200
147.1	92
149.1	377
150.1	165
151.1	315
152.1	178
154.1	66
156.25	2958
157.2	15974
158.15	2143
160	2114
161	63
164	50
166	48
167	348
168.15	1108
169.15	9359
170.05	1341
171.2	4896
172.15	602
173.2	235
174.2	106
175.2	130
178.2	141
183.2	50
185.2	168
187.2	45
189.2	44
190.2	107
191.2	63
192.2	109
196.2	9
198.2	36
199.2	380
200.2	2553
201.2	287
202.2	162
203.2	40
205.2	90
206.2	62
213.2	100
214.2	86
223.2	53
224.2	19
226.2	110
230.2	104
232.2	104
233.2	50
234.2	35
235.2	11
236.2	232
237.2	70
239.2	12
240.2	224
244.2	69
245.2	37
247.2	12
252.2	62
254.2	61
256.2	38
258.2	22
259.2	87
262.2	169
267.2	17
272.2	141
273.2	15
274.2	92
275.2	2
277.2	48
278.2	5
284.2	44
286.2	23
289.2	101
294.2	48
296.2	56
300.2	29
307.2	102
308.2	16
310.2	5
312.2	4
315.2	62
317.2	83
323.2	37
324.2	100
329.2	113
335.2	39
337.2	5
339.2	9
348.2	5
351.2	34
353.2	41
358.2	61
363.2	126
370.2	67
374.2	47
375.2	40
377.2	22
380.2	98
382.2	109
390.2	30
393.2	105
395.2	75
396.2	6
398.2	112
403.2	152
405.2	150
406.2	35
408.2	11
414.2	138
417.2	32
419.2	24
422.2	34
424.2	141
427.2	57
430.2	56
432.2	67
436.2	136
439.2	41
445.2	152
448.2	86
450.2	21
453.2	83
454.2	42
456.2	17
460.2	19
463.2	35
464.2	19
465.2	19
468.2	121
471.2	104
477.2	14
479.2	24
484.2	54
485.2	137
487.2	83
494.2	101
495.2	101
502.2	85
504.2	94
506.2	54
509.2	71
512.2	16
513.2	29
517.2	14
519.2	67
521.2	40
530.2	18
532.2	78
533.2	3
537.2	88
541.2	137
542.2	83
544.2	60
550.2	21
60	411
61	253
62	103
63	255
64	258
64.95	865
66.25	1334
67.15	7922
68.25	6331
69.2	29389
70.15	6293
71.2	8888
72.15	2005
73.15	33528
74.1	286334
75.05	41761
76.05	1306
77.05	611
78.25	616
79.2	1983
80.25	1495
81.15	5000
82.25	4080
83.2	15925
84.15	8747
85.15	3680
86.15	13048
87.1	124451
88.05	14990
89.05	341
90.1	177
91.1	316
92.1	30
93.2	1522
94.25	1272
95.15	4137
96.25	2569
97.2	11187
98.15	5491
99.15	1123
100.15	2272
101.15	16691
102.05	2319
103.1	47
105.1	335
107.05	752
108.1	166
109.05	4800
110	713
111.05	3750
111.95	1864
113	323
114.15	1620
115.1	14583
116.05	2884
117.1	61
119.1	215
120.1	32
121	941
122	62
123	850
123.9	131
124.9	1298
125.85	779
126.9	130
128.15	3131
129.05	20726
130.05	3053
131.1	342
132.1	26
134.1	308
135.1	438
136.1	17
137.1	341
138.1	1243
139.1	329
140.2	1050
141.1	55
142.15	3484
143.15	37385
144.05	3703
145.1	283
146.1	127
148.1	33
149.1	182
152.1	205
153.1	223
154.1	171
156.15	832
157.1	9649
158.05	1836
161.1	24
162.1	90
163.4	836
164.4	542
165.4	81
166.4	61
167.4	30
169.2	9
170.25	3677
171.2	29271
172.15	3023
180.2	190
181.2	270
182.25	1832
183.2	12702
184.15	2769
185.15	5230
186.05	1386
191.1	81
194.1	57
195.1	14
199.1	127
203.1	26
207.1	22
208.1	23
210.1	78
211.1	142
213.35	1334
214.25	7774
215.25	1995
219.3	37
220.3	97
221.3	44
222.3	86
223.3	3
226.3	46
230.3	21
234.3	3
236.3	195
240.3	167
244.3	40
246.3	54
248.3	24
249.3	53
250.3	11
251.3	99
252.3	8
253.3	30
255.3	39
257.3	151
261.3	26
264.3	57
267.3	201
268.3	34
270.3	72
274.3	12
275.3	69
276.3	32
280.3	11
282.3	60
284.3	145
285.3	7
286.3	6
299.3	29
306.3	116
307.3	44
309.3	91
310.3	4
312.3	31
315.3	3
318.3	39
320.3	3
324.3	131
326.3	28
328.3	99
330.3	21
331.3	178
335.3	8
340.3	64
341.3	58
342.3	47
343.3	44
347.3	19
350.3	13
352.3	101
356.3	101
363.3	161
365.3	69
366.3	88
367.3	93
369.3	63
370.3	33
371.3	6
373.3	69
375.3	54
376.3	160
378.3	81
382.3	109
384.3	12
387.3	47
390.3	131
393.3	227
400.3	106
401.3	59
403.3	88
405.3	51
408.3	101
410.3	34
414.3	81
419.3	11
421.3	54
424.3	15
427.3	104
428.3	34
429.3	40
431.3	25
433.3	119
435.3	25
437.3	79
441.3	104
442.3	27
443.3	52
444.3	26
446.3	61
448.3	94
449.3	34
450.3	51
451.3	90
453.3	42
454.3	115
455.3	2
457.3	43
458.3	23
461.3	19
466.3	142
468.3	6
472.3	11
473.3	12
474.3	42
475.3	105
480.3	107
484.3	82
486.3	29
491.3	102
492.3	30
494.3	149
500.3	105
503.3	41
505.3	46
511.3	45
513.3	6
514.3	41
518.3	74
521.3	19
523.3	75
526.3	75
528.3	31
529.3	95
530.3	3
531.3	6
532.3	107
535.3	38
537.3	11
549.3	82
60	289
61	175
62	15
63	164
65	333
66.25	1008
67.15	4695
68.25	3502
69.15	17627
70.15	3128
71.2	3956
72.15	853
73.15	13413
74.15	127180
75.05	21535
76.05	429
77.2	767
78.2	208
79.2	1100
80.25	609
81.2	2910
82.25	1732
83.2	6912
84.15	3133
85.15	1514
86.15	5988
87.1	52275
88.05	5852
90.1	81
92.1	96
93.15	926
94.1	222
95.15	1845
96.15	1120
97.1	5571
98.05	2942
99.1	370
100.15	563
101.05	7111
102.1	346
106.1	65
107.1	413
109.2	1630
110.1	240
111.05	2361
112.1	871
113.1	366
114.2	256
115.2	3096
116.15	919
117.2	54
119.2	26
121.2	483
122.2	183
123.2	775
124.2	135
125.2	764
126.2	413
128.15	2628
129.05	11017
130.05	1992
131.1	143
133.1	167
135.1	476
136.1	119
137.1	313
138.1	228
139.1	203
140.1	50
141.1	85
142.15	1956
143.1	16902
144.05	2088
145.1	81
149.1	321
150.1	173
151.1	61
152.1	230
153.1	459
154.1	470
156.2	346
157.2	3711
158.15	616
159.2	17
161.2	48
162.2	75
163.2	551
166.2	125
167.2	248
168.2	168
170.3	299
171.25	3395
172.3	422
175.3	46
177.3	41
178.3	116
179.3	378
181.3	66
182.3	39
183.3	6
184.25	1030
185.2	7832
186.15	775
188.2	125
190.2	1
193.2	328
195.2	271
196.1	369
197.15	3928
198.35	883
199.25	3563
200.3	99
203.3	82
205.3	59
208.3	24
213.3	40
215.3	57
219.3	88
220.3	136
222.3	62
223.3	504
224.3	92
227.35	823
228.35	3315
229.3	401
230.3	273
233.3	55
235.3	19
236.3	64
240.3	71
244.3	11
248.3	112
250.3	81
253.3	18
254.3	15
256.3	9
257.3	17
258.3	72
266.3	10
267.3	678
268.3	45
270.3	64
271.3	124
273.3	37
275.3	26
280.3	70
281.3	94
282.3	178
286.3	5
288.3	3
290.3	9
291.3	116
293.3	60
295.3	2
299.3	94
300.3	20
305.3	84
309.3	139
312.3	31
313.3	45
314.3	21
315.3	5
316.3	31
317.3	46
319.3	57
322.3	19
325.3	112
329.3	99
336.3	63
338.3	80
339.3	40
340.3	157
348.3	154
349.3	71
351.3	31
357.3	28
362.3	43
363.3	69
365.3	22
371.3	1
373.3	119
376.3	90
378.3	176
382.3	11
387.3	1
388.3	20
393.3	27
397.3	119
402.3	78
403.3	37
406.3	35
407.3	46
408.3	12
411.3	54
413.3	3
414.3	17
415.3	43
419.3	83
422.3	10
430.3	27
432.3	41
433.3	56
435.3	92
437.3	154
438.3	16
441.3	82
447.3	19
451.3	120
452.3	33
455.3	8
459.3	102
461.3	107
464.3	147
466.3	72
471.3	18
472.3	86
473.3	92
474.3	49
475.3	148
476.3	2
477.3	37
478.3	18
480.3	61
484.3	8
486.3	1
490.3	18
491.3	5
492.3	44
494.3	132
495.3	41
497.3	4
499.3	64
500.3	16
502.3	61
503.3	47
506.3	61
508.3	6
514.3	15
520.3	20
523.3	57
524.3	48
526.3	65
528.3	52
530.3	230
533.3	23
535.3	103
539.3	163
541.3	69
545.3	10
547.3	39
550.3	65
59.9	947
60.9	663
62.9	471
63.9	7
65.25	1206
66.25	1645
67.2	9239
68.25	7975
69.15	43297
70.15	8626
71.2	15466
72.1	1752
73.15	39018
74.15	305498
75.05	57162
76.05	3332
77.05	740
78.15	762
79.1	3470
80.25	1691
81.15	6627
82.25	5963
83.25	23012
84.15	9445
85.15	6319
86.15	16892
87.1	164053
88.05	19018
89.05	393
91.1	748
92.2	278
93.25	2254
94.25	1819
95.25	5057
96.25	3639
97.15	13442
98.15	7308
99.15	857
100.15	3461
101.05	21068
102.05	1625
103.1	356
104.1	59
105.1	75
107.1	1675
108.15	854
109.15	2386
110.15	1885
111.1	7066
112.05	2042
113.05	580
114.25	1339
115.2	7742
116.15	3538
118.2	9
120.1	294
121.1	2067
122.05	623
123.15	1632
124.15	1081
125.15	3075
126.05	931
127.15	576
128.15	3140
129.05	20916
130.05	5823
131.1	231
132.1	286
134.2	366
135.15	1181
136.2	26
137.5	1145
138.2	441
139.2	1368
140.2	350
142.25	11363
143.15	54586
144.15	5661
145.15	466
146.2	120
147.2	142
148.2	82
149.2	723
150.2	82
151.2	103
153.2	1141
155.2	131
156.15	1303
157.1	18649
158.05	2412
161.1	110
162.1	6
163.1	404
164.1	382
165.1	128
166	870
167	581
168.25	966
169.2	190
170.1	129
171.15	8082
172.05	811
174.1	26
176.1	139
177.1	180
179.1	176
181.1	487
183.1	17
184.15	1243
185.1	10325
186.05	1322
187.1	52
188.1	141
191.1	675
192.1	81
193.1	329
194.1	113
195.1	178
196.1	194
197.2	101
198.25	2899
199.25	26227
200.15	4130
202.2	86
204.2	140
205.2	48
206.2	96
207.2	225
208.2	76
209.2	476
210.25	1364
211.15	11274
212.15	1879
213.2	6620
214.15	1183
215.2	14
216.2	23
219.2	79
222.2	86
225.2	185
228.2	35
230.2	29
235.2	127
236.2	106
239.2	72
240.2	8
241.15	1073
242.15	14445
243.05	2863
244.1	284
247.1	30
248.1	18
252.1	1
253.1	46
255.1	227
261.1	86
263.1	152
265.1	43
266.1	10
267.1	69
274.1	63
277.1	5
278.1	41
280.1	7
283.1	154
285.1	99
297.1	38
300.1	19
303.1	188
308.1	198
312.1	17
313.1	5
317.1	28
322.1	137
324.1	6
328.1	135
334.1	4
339.1	102
341.1	166
342.1	107
344.1	137
345.1	81
354.1	52
356.1	82
358.1	89
360.1	6
362.1	94
363.1	75
366.1	80
367.1	56
369.1	35
370.1	12
371.1	95
376.1	15
377.1	11
380.1	12
381.1	30
384.1	43
386.1	149
389.1	11
396.1	69
398.1	18
399.1	33
403.1	118
404.1	246
408.1	52
411.1	81
414.1	24
419.1	87
422.1	106
423.1	12
424.1	47
427.1	44
428.1	86
429.1	66
433.1	23
435.1	1
437.1	27
438.1	157
441.1	16
443.1	77
451.1	72
454.1	35
457.1	1
467.1	34
469.1	145
475.1	102
477.1	40
481.1	151
483.1	128
485.1	47
490.1	7
493.1	20
495.1	89
496.1	6
498.1	3
500.1	45
501.1	26
503.1	76
505.1	28
508.1	60
510.1	62
513.1	105
516.1	105
518.1	82
522.1	26
524.1	166
526.1	108
527.1	17
533.1	37
538.1	4
540.1	61
541.1	56
544.1	18
549.1	11
550.1	34
60	515
61	13
63	42
64	87
65	241
66.25	645
67.25	4641
68.25	3667
69.2	17154
70.15	3278
71.2	6389
72.1	867
73.15	16395
74.1	117360
75.05	23741
76.05	1126
77.1	252
78.3	426
79.3	1228
80.25	485
81.2	3744
82.25	2640
83.15	10732
84.15	5235
85.15	2808
86.15	6644
87.1	58284
88.05	6492
89.1	41
90.1	159
91.1	260
92.1	2
93.2	1425
94.2	431
95.15	2060
96.25	1455
97.2	5899
98.15	2234
99.15	870
100.15	1340
101.1	8162
102.05	1185
106.1	33
107.2	994
108	558
109	1469
110.05	1125
111	3353
112	1003
113	161
114.1	407
115.1	4628
116.05	1308
117.1	357
118.1	30
119.1	32
120	362
121	1264
122.8	927
123.8	458
125.3	1014
126.3	285
127.3	202
128.15	1299
129.1	6230
130.05	1197
131.1	400
133.1	24
134.1	168
135.1	675
136.1	61
137.1	318
138.1	186
139.1	439
140.1	255
141.1	128
142.15	2195
143.05	17125
144.05	2797
148.1	197
149.1	294
151.1	277
152.1	8
153.1	431
156.15	1048
157.15	7444
158.05	1052
159.1	7
161.1	19
162.1	88
163.1	259
164.1	135
166.1	9
168.1	239
170.1	305
171.15	5056
172.05	577
178.1	49
179.1	151
180.1	32
181.1	359
182.1	213
184.1	176
185.15	3154
186.1	169
189.1	57
191.1	2
192.1	1
193.1	60
196.1	79
198.2	303
199.15	4549
200.15	1130
205.2	22
206.2	34
207.2	165
210.2	24
211.2	40
212.15	839
213.15	8438
214.05	1874
215.1	179
218.1	36
221.1	7
223.1	102
224.1	132
225.1	3777
226.05	1241
227.15	2187
228.2	302
229.2	6
232.2	146
233.2	28
234.2	8
236.2	160
238.2	64
239.2	1
241.2	135
243.2	102
246.2	129
249.2	25
252.2	112
255.2	317
256.2	5396
257.15	1144
258.2	59
260.2	37
267.2	81
270.2	100
272.2	93
274.2	10
279.2	8
282.2	21
285.2	6
287.2	12
291.2	137
293.2	76
297.2	28
300.2	16
302.2	12
303.2	115
311.2	13
312.2	35
315.2	82
317.2	13
322.2	53
324.2	5
330.2	109
336.2	118
343.2	24
351.2	98
352.2	169
355.2	116
360.2	50
361.2	101
363.2	9
366.2	61
367.2	31
368.2	17
372.2	20
375.2	56
377.2	9
378.2	57
380.2	56
382.2	15
385.2	32
386.2	90
387.2	20
389.2	123
393.2	17
395.2	133
407.2	72
408.2	5
409.2	47
411.2	14
413.2	46
414.2	109
417.2	15
419.2	140
420.2	7
429.2	70
431.2	25
432.2	53
435.2	251
440.2	62
448.2	139
454.2	55
455.2	43
457.2	4
460.2	6
461.2	66
465.2	4
469.2	99
470.2	57
471.2	40
474.2	45
475.2	50
476.2	19
477.2	124
481.2	6
485.2	85
492.2	63
496.2	127
497.2	57
501.2	66
504.2	60
508.2	38
510.2	46
511.2	2
512.2	4
514.2	110
517.2	101
523.2	261
531.2	141
533.2	72
537.2	41
538.2	23
540.2	4
543.2	18
546.2	90
549.2	23
60.05	1103
61.05	801
63.1	168
64.2	461
65.15	1075
66.25	2708
67.2	13704
68.25	11913
69.15	56760
70.15	11484
71.15	18599
72.1	2410
73.15	47294
74.15	361023
75.05	83298
76.05	4852
77.05	836
78.05	810
79.05	4253
80.25	2079
81.15	11490
82.25	9116
83.15	34081
84.15	12022
85.15	8837
86.15	24786
87.1	216417
88.05	23998
89.05	345
91.1	231
92.1	94
93.15	3354
94.15	1486
95.15	6312
96.15	5840
97.1	21945
98.05	9104
99.05	2328
100.15	3850
101.1	24623
102.05	3700
103.1	65
104.1	141
106.1	394
107.1	2606
108.1	623
109.15	3419
110.15	2959
111.1	9543
112.05	3360
113.05	1443
114.15	1561
115.1	16367
116.05	5960
117.1	246
118.1	109
119.1	53
120.1	411
121.1	2976
122.1	752
123.15	3162
124.15	1654
125.1	4041
126.2	2018
127.1	190
128.15	4256
129.05	35142
130.05	6358
131.1	217
132.1	16
133.1	70
134.1	283
135.05	2655
136.05	1125
136.95	1312
138.05	867
139.05	2216
139.95	815
141.15	601
142.15	6798
143.1	59571
144.05	7725
145.05	896
146.1	56
147.1	238
148.1	87
149.1	1396
150.1	318
151.1	692
152.1	354
153.05	1792
154.1	464
156.25	1840
157.15	14694
158.15	3283
159.2	356
160.2	63
161.2	245
162.2	205
163.2	610
164.2	17
165.2	391
167.5	957
168.5	174
169.1	203
170.15	1996
171.15	27396
172.05	5606
173.1	223
175.1	13
177.1	440
178.1	119
179.1	233
180.1	190
181.1	504
182.1	15
184.25	2741
185.25	17050
186.15	3272
187.2	16
190.2	42
191.2	266
194.2	500
195.2	78
196.2	589
197.2	108
198.35	2341
199.25	16086
200.25	2150
202.3	14
204.3	168
205.3	79
207.3	42
209.3	523
212.2	232
213.2	8726
214.15	1239
218.2	41
219.2	630
220.2	57
221.2	239
223.2	271
225.2	145
226.25	3629
227.2	33103
228.15	5842
229.2	107
230.2	94
235.2	112
237.2	162
238.25	2583
239.2	15409
240.15	4208
241.25	10516
242.15	2469
243.2	37
248.2	52
252.2	83
255.2	116
258.2	53
260.2	175
265.2	29
267.2	8
269.25	2871
270.25	21933
271.15	4919
272.15	425
273.2	84
277.2	74
278.2	72
280.2	102
281.2	70
283.2	110
287.2	97
293.2	47
294.2	23
295.2	108
296.2	89
299.2	71
301.2	19
303.2	86
305.2	14
306.2	5
308.2	15
312.2	54
314.2	17
315.2	57
321.2	248
324.2	37
330.2	35
333.2	98
335.2	8
337.2	92
350.2	162
354.2	54
361.2	6
364.2	150
373.2	118
376.2	48
378.2	36
380.2	109
384.2	52
387.2	21
393.2	10
397.2	116
399.2	62
402.2	93
404.2	21
409.2	94
410.2	9
413.2	21
417.2	116
418.2	35
419.2	61
424.2	97
426.2	165
428.2	54
431.2	70
433.2	73
435.2	41
439.2	3
441.2	36
443.2	244
444.2	56
449.2	23
455.2	94
458.2	65
460.2	56
463.2	87
472.2	1
473.2	50
477.2	57
478.2	29
480.2	19
481.2	45
485.2	11
490.2	146
492.2	19
495.2	44
499.2	69
500.2	133
502.2	95
505.2	127
507.2	65
511.2	14
513.2	59
518.2	38
520.2	20
522.2	144
524.2	137
528.2	71
534.2	97
535.2	9
537.2	45
540.2	70
542.2	67
543.2	40
546.2	58
547.2	58
60	31
61	47
62	184
63	59
65	742
66.2	160
67.2	3950
68.25	2844
69.2	14228
70.15	3877
71.2	5898
72.1	731
73.15	9570
74.15	91976
75.05	21581
76.05	1057
77.1	79
78.1	29
79.25	1047
80.25	1279
81.15	2440
82.25	2347
83.2	8274
84.15	2957
85.05	2531
86.15	5994
87.1	46535
88.05	7106
90.1	19
91.1	311
92.1	168
93.25	985
94.25	927
95.2	2428
96.25	1356
97.15	7286
98.15	2108
99.15	742
100.1	376
101.1	5349
102.05	1085
104.1	62
106.1	35
107.1	534
108	263
109.05	1557
109.95	894
111.05	3349
111.95	1090
113	432
114.1	377
115.05	3011
116.05	946
117.1	54
118.1	13
120.1	21
121.05	1119
122.1	129
123.1	514
124.15	804
125.05	1135
127.1	222
128.15	1242
129.1	8673
130.05	1825
134.1	52
135.1	572
137.1	317
138.1	131
139.1	469
140.1	499
141.1	18
142.15	1565
143.1	15593
144.05	2029
147.1	57
149.1	720
150.1	92
151.1	151
152.1	62
153.1	669
156.1	362
157.1	2621
158.05	922
159.1	55
162.1	104
163.1	251
164.1	201
166.1	237
167.1	112
170.1	78
171.25	2474
172.3	449
174.3	9
178.3	128
179.3	78
180.3	169
182.3	71
184.15	727
185.15	4083
186.05	913
187.1	191
188.1	67
189.1	59
191.1	92
194.1	169
195.1	29
196.1	72
197.1	38
198.25	652
199.25	4403
200.15	774
201.2	99
203.2	42
209.2	182
210.2	240
213.45	1322
214.5	304
217.5	17
225.5	30
226.9	1908
227.85	836
228.9	85
234.9	214
240.15	740
241.15	8098
242.05	2013
243.1	331
244.1	30
248.1	73
251.1	185
252.2	153
253.2	2961
254.2	549
255.2	1722
256.2	356
257.2	65
259.2	74
262.2	97
268.2	68
272.2	22
276.2	169
278.2	8
279.2	17
280.2	47
281.2	24
283.25	608
284.15	5634
285.15	1410
286.2	15
288.2	25
291.2	61
294.2	60
296.2	63
297.2	22
298.2	48
302.2	35
307.2	60
310.2	41
311.2	106
312.2	12
314.2	85
322.2	34
325.2	101
330.2	64
333.2	39
336.2	61
337.2	7
338.2	42
339.2	29
340.2	21
341.2	40
343.2	21
347.2	11
349.2	82
353.2	63
354.2	9
355.2	50
357.2	16
361.2	144
363.2	33
374.2	19
375.2	120
376.2	46
378.2	37
380.2	81
384.2	95
386.2	55
387.2	75
394.2	45
395.2	27
399.2	10
400.2	8
401.2	15
403.2	121
406.2	32
409.2	67
410.2	75
412.2	185
417.2	264
420.2	126
422.2	87
424.2	44
425.2	66
433.2	90
435.2	62
436.2	6
440.2	62
443.2	36
445.2	68
447.2	1
451.2	120
453.2	38
456.2	74
458.2	6
464.2	116
466.2	52
468.2	96
472.2	15
474.2	70
476.2	92
478.2	117
481.2	27
483.2	35
488.2	25
491.2	23
494.2	184
496.2	49
497.2	23
500.2	51
501.2	61
507.2	108
509.2	99
512.2	25
514.2	9
516.2	42
519.2	100
523.2	90
534.2	17
537.2	60
542.2	55
544.2	35
60	1237
61	381
62	230
63	18
65.15	1017
66.15	1334
67.15	10867
68.15	9671
69.15	45709
70.05	10166
71.15	20872
72.1	2073
73.15	31669
74.15	286538
75.05	74957
76.05	3530
77.05	1209
78.25	751
79.15	2898
80.25	2301
81.15	10985
82.25	7585
83.2	26699
84.15	9729
85.15	9474
86.15	18829
87.1	165776
88.05	19190
89.05	178
90.1	1
91.1	299
92.1	159
93.15	2654
94.15	1164
95.15	6238
96.15	3216
97.15	22019
98.05	9455
99.05	2104
100.15	2661
101.1	21107
102.05	3384
103.1	200
105.1	113
106.1	402
107.1	2975
108.15	1320
109.1	3334
110.15	2776
111.1	9049
112.05	3115
113.15	1060
114.15	1814
115.05	9895
116.05	3809
117.05	687
118.1	111
119.1	184
120.1	517
121.1	3721
122.15	1041
123.15	3532
124.15	2470
125.1	5477
126.05	1274
127.15	762
128.15	3882
129.1	25831
130.05	5563
131.1	51
134	427
135	2225
136.05	736
137	2287
137.95	564
138.9	2311
139.85	663
142.25	10111
143.15	53255
144.15	6769
145.15	259
146.2	3
147.2	112
148.2	7
149.2	1493
150.2	146
151.2	744
152.05	755
152.95	1080
154	269
155	459
156.15	1024
157.1	13933
158.05	2816
159.1	423
162.1	202
163.05	1297
164.1	282
165.1	155
166.1	401
167.15	1135
168.1	610
169.1	171
170.25	717
171.2	7882
172.15	1154
173.2	116
174.2	44
175.2	19
176.2	69
177.2	649
178.2	15
180.1	414
181.05	815
182.1	51
184.35	2553
185.25	8498
186.25	2325
187.3	55
188.3	286
191.3	404
193.3	48
194.3	311
195.3	124
196.3	369
198.25	2771
199.15	22204
200.15	3968
201.15	409
202.2	176
204.2	10
205.2	225
208.2	18
209.2	23
210.2	207
212.25	1295
213.15	10858
214.15	1326
215.2	199
216.2	166
217.2	76
219.2	327
220.2	7
221.2	240
222.2	405
223.2	263
224.2	480
226.25	954
227.15	5492
228.15	950
229.2	134
233.2	344
235.2	92
238.2	98
239.2	103
240.15	1009
241.1	8721
242.05	2043
243.1	280
246.1	13
247.1	184
248.1	129
249.1	152
250.1	92
251.1	58
254.15	2301
255.1	25792
256.05	4830
257.05	632
259.1	69
265.1	143
266.25	1425
267.15	6945
268.15	2274
269.15	2996
270.15	1661
272.2	210
275.2	88
277.2	66
282.2	109
283.2	103
291.2	59
292.2	33
293.2	20
295.2	6
297.15	1825
298.1	22924
299.05	7379
300.05	1330
301.1	42
304.1	27
305.1	32
307.1	54
313.1	33
315.1	87
316.1	115
318.1	92
319.1	175
320.1	211
324.1	28
327.1	109
330.1	28
332.1	116
336.1	30
338.1	17
340.1	148
347.1	94
352.1	27
355.1	35
359.1	87
361.1	66
363.1	54
365.1	14
366.1	44
367.1	94
371.1	63
373.1	123
376.1	132
380.1	5
381.1	32
384.1	109
389.1	46
392.1	36
394.1	22
397.1	14
399.1	161
400.1	75
402.1	85
406.1	37
408.1	76
409.1	13
411.1	38
413.1	26
415.1	17
417.1	112
421.1	40
424.1	63
426.1	41
428.1	29
430.1	111
431.1	68
435.1	157
437.1	3
438.1	95
441.1	101
443.1	86
444.1	28
447.1	35
448.1	46
451.1	26
454.1	106
456.1	15
459.1	70
464.1	54
467.1	70
472.1	176
474.1	162
476.1	25
478.1	161
483.1	11
484.1	19
486.1	95
488.1	18
490.1	187
495.1	58
496.1	84
498.1	23
499.1	13
505.1	23
507.1	39
512.1	78
516.1	18
517.1	22
518.1	54
521.1	38
522.1	51
526.1	47
528.1	59
535.1	12
536.1	25
537.1	137
542.1	145
543.1	9
546.1	20
547.1	39
59.7	919
60.7	608
63.7	195
65.3	994
66.25	1224
67.25	8715
68.25	11725
69.15	36922
70.15	7433
71.15	19677
72.1	2180
73.15	27889
74.15	223012
75.05	67365
76.05	3750
77.05	604
78.25	831
79.15	3446
80.25	2044
81.2	9399
82.25	6552
83.2	27688
84.15	8378
85.1	11168
86.15	16100
87.1	139455
88.05	16751
89.05	529
91.1	601
92.1	104
93.1	2388
94.15	1875
95.05	6593
96.15	4708
97.1	22482
98.05	7978
99.05	1544
100.15	2748
101.1	19542
102.05	3959
104.1	92
105.1	74
106.2	395
107.2	2804
108.1	721
109.1	5273
110.15	2710
111.1	12490
112.05	3748
113.05	1469
114.15	1491
115.05	9672
116.05	3998
117.05	835
118.1	90
119.1	105
120.1	255
121.1	3744
122.05	887
123.15	3448
124.15	1769
125.15	5343
126.05	919
127.1	359
128.15	2788
129.1	22272
130.05	6948
131.1	60
132.1	93
133.1	89
134.1	139
135.05	3127
135.9	625
136.95	1037
137.95	665
138.9	1446
139.85	693
141.15	438
142.15	5736
143.1	44290
144.05	5876
145.05	389
147.1	125
148	179
149.05	1889
150	168
151	623
151.6	519
152.65	969
153.6	520
156.15	797
157.1	10146
158.05	1954
159.1	382
160.1	27
162.1	31
163.05	893
164	282
165	387
166	614
167.2	1096
168.2	314
169.2	203
170.25	1423
171.2	11886
172.15	2239
175.2	131
176.2	123
177.2	636
180.2	14
181.2	455
182.2	226
183.2	7
184.25	1813
185.2	11457
186.15	2490
187.2	352
191.2	358
192.2	75
193.2	142
194.2	190
195.2	536
196.2	258
197.2	89
198.15	1174
199.1	10867
200.05	3173
202.1	111
203.1	79
205.1	93
206.1	138
208.1	149
210.1	121
212.25	709
213.2	5623
214.15	2164
215.2	73
216.2	11
217.2	26
222.2	143
223.2	59
224.2	311
226.25	1648
227.25	13601
228.15	2771
232.2	27
233.2	74
235.2	53
237.2	170
240.25	1588
241.25	9391
242.15	1740
243.2	241
247.2	112
248.2	46
249.2	64
250.2	97
251.2	289
252.2	182
253.2	64
254.25	435
255.2	7288
256.15	740
257.2	314
258.2	20
261.2	173
262.2	22
265.2	54
266.2	224
268.3	421
269.25	4831
270.25	933
274.3	82
275.3	264
276.3	198
277.3	471
278.3	40
281.3	72
282.15	848
283.15	18851
284.05	4568
285.05	413
290.1	9
292.1	19
293.1	289
294.25	616
295.25	4015
296.45	1392
297.4	4752
298.4	32
300.4	223
302.4	52
307.4	41
308.4	53
311.4	182
313.4	75
315.4	30
316.4	36
317.4	86
318.4	76
319.4	36
323.4	157
325.35	4226
326.25	20731
327.25	3425
328.25	446
334.3	10
337.3	79
340.3	98
341.3	12
343.3	34
346.3	55
348.3	3
351.3	1
353.3	120
354.3	67
355.3	100
356.3	111
357.3	79
359.3	37
360.3	170
361.3	34
364.3	27
366.3	95
368.3	70
369.3	7
371.3	166
373.3	13
375.3	10
376.3	33
377.3	137
380.3	39
381.3	60
384.3	107
386.3	15
388.3	81
391.3	3
392.3	19
394.3	62
396.3	113
400.3	26
403.3	49
404.3	14
405.3	89
406.3	15
408.3	69
410.3	102
414.3	116
416.3	22
417.3	3
418.3	17
419.3	154
420.3	10
427.3	206
433.3	32
437.3	86
440.3	14
442.3	97
445.3	29
450.3	12
454.3	75
457.3	141
458.3	134
460.3	80
461.3	92
463.3	49
464.3	8
468.3	138
470.3	46
473.3	7
475.3	72
476.3	23
479.3	17
481.3	27
482.3	150
487.3	34
489.3	44
494.3	130
495.3	20
496.3	144
498.3	5
501.3	110
504.3	12
508.3	72
512.3	73
514.3	37
518.3	45
519.3	24
520.3	84
522.3	11
525.3	60
527.3	166
529.3	16
532.3	76
533.3	53
535.3	75
536.3	27
538.3	84
540.3	27
546.3	23
549.3	141
60	150
61	162
62	41
64	36
65	153
66.25	1827
67.2	6614
68.25	6222
69.2	31112
70.15	7059
71.2	18914
72.15	1566
73.15	15731
74.15	165126
75.05	56798
76.05	3230
77.15	500
78.15	560
79.05	1741
80.15	1553
81.15	7780
82.15	5226
83.1	21315
84.05	7675
85.1	9505
86.15	11675
87.1	108642
88.05	14518
89.05	23
90.1	194
91.1	247
92	224
93	2031
94.25	1319
95.15	6427
96.25	5183
97.15	17868
98.15	5076
99.15	1563
100.15	2355
101.05	15689
102.05	1025
103.1	131
106.1	524
107.1	2749
108.1	573
109.15	2825
110.15	3045
111.1	9339
112.05	2324
113.1	2105
114.15	1389
115.1	6026
116.05	4040
118.1	56
119.1	485
120.1	241
121.05	4101
122.25	1061
123.15	3057
124.1	869
125.1	4742
126.05	1024
127.05	588
128.15	2280
129.05	17281
130.05	5843
131.05	621
132.1	248
133.1	162
134.1	429
135.1	2640
136.1	239
137.1	1757
138.1	506
139.05	1975
140.1	234
141.1	143
142.15	4656
143.1	38710
144.05	5408
145.1	22
146.1	183
147.1	6
149.2	2279
150.2	490
151.2	590
152.1	256
153.05	2292
155.1	660
156.25	1391
157.2	7516
158.15	1620
159.2	31
161.2	65
162.1	2
163.15	1372
164.1	248
165.1	568
166.1	106
167.5	900
168.5	50
169.5	217
170.25	571
171.2	5023
172.15	1518
173.2	202
174.2	15
176.2	110
177.2	603
178.2	121
179.2	251
180.2	25
181.2	303
182.2	130
184.25	813
185.15	6109
186.15	1514
189.2	15
191.2	291
194.2	116
195.2	245
196.2	107
198.15	1192
199.15	11895
200.05	2429
205.1	327
207.1	374
208.1	97
209.1	501
210.1	615
211.1	90
212.2	303
213.2	6692
214.15	2168
215.2	109
219.2	35
220.2	48
221.2	135
222.2	228
223.2	137
224.2	73
225.2	27
226.45	1157
227.45	3610
228.4	401
229.4	78
232.4	179
233.4	227
235.4	261
236.4	27
237.4	332
238.4	9
240.1	155
241.15	5035
242.05	2162
243.1	58
244.1	25
247.1	197
248.1	129
249.1	87
250.1	80
251.1	141
252.1	168
254.25	1677
255.2	12670
256.15	1978
257.2	201
259.2	1
261.2	64
262.2	58
264.2	101
266.2	14
267.2	56
268.2	126
269.15	5938
270.15	543
271.2	196
272.2	123
275.2	172
278.2	181
279.2	10
280.2	346
282.35	884
283.3	2463
284.3	352
285.3	10
287.3	18
288.3	16
289.3	317
292.3	109
293.3	54
296.35	692
297.25	2385
298.3	457
303.3	211
304.3	229
305.3	473
306.3	6
309.3	276
310.25	1252
311.25	11194
312.15	4372
314.2	147
317.2	90
320.2	113
321.2	171
322.2	126
323.2	2246
324.15	641
325.2	2220
326.2	58
327.2	194
328.2	71
329.2	8
332.2	103
334.2	88
335.2	32
337.2	72
338.2	23
341.2	158
346.2	28
347.2	131
350.2	43
353.25	1992
354.25	15829
355.15	5366
356.15	495
357.2	1
362.2	123
363.2	82
368.2	148
371.2	78
372.2	39
374.2	68
375.2	30
378.2	13
380.2	23
383.2	27
385.2	45
386.2	169
387.2	31
388.2	92
390.2	67
392.2	135
394.2	60
398.2	151
402.2	160
407.2	60
410.2	134
412.2	40
413.2	86
415.2	22
418.2	78
420.2	35
422.2	111
426.2	81
429.2	30
434.2	73
435.2	122
438.2	7
442.2	134
443.2	6
446.2	9
447.2	74
450.2	146
454.2	82
456.2	43
458.2	63
460.2	24
462.2	16
466.2	113
467.2	14
468.2	50
469.2	42
476.2	82
480.2	26
484.2	14
486.2	181
490.2	102
493.2	90
495.2	36
497.2	76
498.2	1
501.2	119
506.2	33
508.2	49
509.2	133
510.2	39
511.2	63
513.2	21
515.2	19
517.2	199
519.2	5
520.2	27
522.2	53
524.2	73
526.2	33
528.2	8
531.2	128
536.2	63
542.2	136
544.2	3
546.2	5
548.2	77
550.2	133
60	111
61	276
62	57
63	43
64	3
65	195
66.25	792
67.25	4019
68.25	5088
69.15	16012
70.35	4076
71.25	12307
72.15	1012
73.15	9826
74.15	81849
75.05	31747
76.05	1107
77.1	653
79.2	1063
80.25	1029
81.15	3626
82.25	3890
83.2	13599
84.15	3297
85.15	6174
86.15	6107
87.1	59992
88.05	6257
89.1	105
90.1	11
91.1	407
92.2	163
93.15	1669
94.25	679
95.2	3657
96.25	3022
97.15	10957
98.15	4566
99.15	1289
100.15	1144
101.1	8411
102.05	1032
103.1	35
105.1	21
106.2	230
106.85	1496
108.15	544
109.15	1739
110.15	1368
111.1	6263
112.05	1351
113	1220
114.15	495
115.15	3723
116.05	1709
117.1	197
118.1	94
119.1	22
120.25	719
121.1	2088
122.15	992
123.15	962
124.15	1202
125.15	2797
125.75	665
127.1	290
128.15	920
129	7916
130.05	3971
131	84
132	21
133.1	99
134.15	611
135.2	1400
136.2	585
137.1	471
138.2	463
139.05	1391
140.2	259
141	427
142.15	1939
143.1	19764
144.05	3749
145.1	30
146.1	103
147.1	137
148.1	15
149.1	851
151.1	247
152.1	363
153.1	408
154.1	324
155.1	218
156.25	565
157.15	4320
158.15	748
159.2	83
160.2	139
162.2	61
163.2	444
164.2	168
165.2	698
166.2	317
167.2	773
168.2	431
169.2	146
170.2	319
171.2	3152
172.15	561
175.2	145
177.2	162
179.2	83
180.2	87
181.2	550
183.2	65
184.1	263
185.1	2938
186.05	1291
188.1	12
189.1	34
190.1	180
194.1	39
195.1	194
198.25	1348
199.2	5617
200.15	512
201.2	262
202.2	54
203.2	19
205.2	458
208.2	127
209.2	436
210.2	133
212.3	445
213.25	2264
214.3	400
215.4	37
219.4	137
220.4	27
222.3	188
223.4	506
226.25	529
227.2	3978
228.15	1149
229.2	62
230.2	6
232.2	89
234.2	51
235.2	43
236.2	66
239.2	63
240.25	989
241.25	4486
242.15	620
245.2	126
247.3	46
248.3	136
249.3	68
250.3	142
251.3	81
253.2	23
254.3	444
255.35	2283
256.25	597
258.3	44
260.3	50
261.3	183
264.3	91
265.3	69
266.3	36
267.3	71
268.3	69
269.35	1956
270.25	471
271.1	333
275.1	8
276.3	25
277.1	93
278.1	6
279.3	44
280.3	188
282.25	516
283.25	4368
284.15	1181
286.2	52
288.2	102
290.2	125
295.2	130
296.1	243
297.15	2216
298.05	664
302.1	35
303.1	44
305.1	14
306.1	52
307.1	74
308.1	1
311.1	1081
312.1	493
313.1	52
316.1	206
317.1	9
319.1	56
324	144
325.05	1028
326	114
327	79
329.2	15
330.2	20
331.2	23
335.2	24
336	67
338.45	560
339.3	4626
340.25	1304
343.3	45
344.3	89
346.3	124
350.4	100
351.65	1151
352.6	224
353.8	1002
356.8	28
358.8	153
361.7	4
362.8	40
366.8	21
373.8	6
381.35	1690
382.25	9158
383.25	2698
384.3	12
385.3	156
387.3	41
388.3	74
392.3	83
397.3	18
399.3	15
401.3	101
403.3	53
405.3	117
406.3	31
415.3	10
416.3	241
421.3	1
422.3	62
423.3	27
424.3	50
425.3	29
433.3	121
435.3	32
436.3	27
437.3	19
445.3	54
446.3	43
447.3	3
449.3	79
451.3	24
453.3	110
459.3	56
462.3	45
463.3	35
465.3	159
466.3	16
469.3	59
472.3	124
473.3	45
479.3	43
480.3	11
484.3	43
486.3	67
487.3	65
488.3	39
490.3	28
493.3	8
497.3	190
501.3	96
503.3	85
505.3	34
506.3	55
510.3	107
511.3	47
513.3	53
519.3	94
521.3	19
524.3	66
528.3	48
534.3	61
535.3	19
537.3	6
541.3	9
542.3	12
547.3	1
548.3	90
550.3	99
